CHEMBL1269771_5TGZ


 68 73  0  0  0  0  0  0  0  0999 V2000
   42.3891   10.5142  329.6972 C   0  0  0  0  0
   42.6605    9.0609  329.9093 C   0  0  0  0  0
   43.8262    8.3667  329.6232 C   0  0  0  0  0
   45.0484    8.8903  328.9901 C   0  0  0  0  0
   46.2333   10.7893  327.8188 C   0  0  0  0  0
   46.0565   12.2827  327.6602 C   0  0  0  0  0
   47.1381   12.8415  326.7551 C   0  0  0  0  0
   46.8896   14.3183  326.4841 C   0  0  0  0  0
   45.8942   14.5164  325.3455 C   0  0  0  0  0
   44.4636   14.2523  325.7962 C   0  0  0  0  0
   43.9332   15.3867  326.6638 C   0  0  0  0  0
   43.6023   16.6247  325.8378 C   0  0  0  0  0
   42.3082   16.4441  325.0564 C   0  0  0  0  0
   41.4026   14.7550  323.7344 C   0  0  0  0  0
   42.4915   16.5459  322.7281 C   0  0  0  0  0
   43.7944   16.4776  321.9423 C   0  0  0  0  0
   44.9132   17.2282  322.6574 C   0  0  0  0  0
   44.6861   18.7339  322.5992 C   0  0  0  0  0
   44.9596   19.2723  321.2030 C   0  0  0  0  0
   46.4487   19.5187  320.9911 C   0  0  0  0  0
   46.9124   20.7859  321.7055 C   0  0  0  0  0
   46.5729   22.0344  320.9021 C   0  0  0  0  0
   45.1135   22.4114  321.0806 C   0  0  0  0  0
   44.2236   24.7549  320.7757 C   0  0  0  0  0
   43.9349   25.8741  319.8658 C   0  0  0  0  0
   44.1671   27.3737  316.6742 C   0  0  0  0  0
   45.4808   27.6325  316.2593 C   0  0  0  0  0
   45.7489   27.9553  314.9273 C   0  0  0  0  0
   44.7052   28.0124  313.9991 C   0  0  0  0  0
   43.3945   27.7383  314.3999 C   0  0  0  0  0
   43.1183   27.4169  315.7325 C   0  0  0  0  0
   43.2272   27.7534  318.9632 C   0  0  0  0  0
   42.6056   29.0807  318.7360 C   0  0  0  0  0
   43.1708   29.9892  317.8289 C   0  0  0  0  0
   42.5715   31.2314  317.5997 C   0  0  0  0  0
   41.4004   31.5776  318.2783 C   0  0  0  0  0
   40.8321   30.6840  319.1898 C   0  0  0  0  0
   41.4338   29.4419  319.4182 C   0  0  0  0  0
   43.2162   27.0268  320.1447 C   0  0  0  0  0
   42.6028   27.4169  321.4489 C   0  0  0  0  0
   41.9838    5.6823  331.0167 C   0  0  0  0  0
   40.7407    5.2251  330.5510 C   0  0  0  0  0
   40.2425    3.9853  330.9564 C   0  0  0  0  0
   40.9861    3.1865  331.8261 C   0  0  0  0  0
   42.2246    3.6285  332.2957 C   0  0  0  0  0
   42.7315    4.8688  331.8931 C   0  0  0  0  0
   41.8295    8.1322  330.5134 C   0  0  0  0  0
   40.4853    8.3986  331.0739 C   0  0  0  0  0
   40.0788    7.7891  332.2697 C   0  0  0  0  0
   38.8150    8.0521  332.8041 C   0  0  0  0  0
   37.9492    8.9314  332.1484 C   0  0  0  0  0
   38.3487    9.5497  330.9610 C   0  0  0  0  0
   39.6119    9.2856  330.4271 C   0  0  0  0  0
   46.0425    8.1322  328.8366 O   0  0  0  0  0
   43.9620   24.8433  322.0064 O   0  0  0  0  0
   45.1203   10.2579  328.5841 N   0  0  0  0  0
   42.5423   15.6437  323.8662 N   0  0  0  0  0
   44.8007   23.5596  320.2475 N   0  0  0  0  0
   44.3486   25.9066  318.5846 N   0  0  0  0  0
   43.9209   27.0374  318.0449 N   0  0  0  0  0
   43.6917    7.0855  330.0217 N   0  0  0  0  0
   42.4907    6.9481  330.5649 N   0  0  0  0  0
   45.0419   28.4167  312.3305 Cl  0  0  0  0  0
   41.4634   27.0316  316.1792 Cl  0  0  0  0  0
   40.6465   33.1311  317.9843 Cl  0  0  0  0  0
   40.3564    1.6361  332.3409 Cl  0  0  0  0  0
   44.2712    5.3942  332.5548 Cl  0  0  0  0  0
   36.3649    9.2599  332.8133 Cl  0  0  0  0  0
  1  2  1  0  0  0
  2  3  1  0  0  0
  3  4  1  0  0  0
  4 56  1  0  0  0
  5 56  1  0  0  0
  5  6  1  0  0  0
  6  7  1  0  0  0
  7  8  1  0  0  0
  8  9  1  0  0  0
  9 10  1  0  0  0
 10 11  1  0  0  0
 11 12  1  0  0  0
 12 13  1  0  0  0
 13 57  1  0  0  0
 14 57  1  0  0  0
 15 57  1  0  0  0
 15 16  1  0  0  0
 16 17  1  0  0  0
 17 18  1  0  0  0
 18 19  1  0  0  0
 19 20  1  0  0  0
 20 21  1  0  0  0
 21 22  1  0  0  0
 22 23  1  0  0  0
 23 58  1  0  0  0
 24 25  1  0  0  0
 27 28  1  0  0  0
 29 63  1  0  0  0
 29 30  1  0  0  0
 31 64  1  0  0  0
 31 26  1  0  0  0
 32 33  1  0  0  0
 34 35  1  0  0  0
 36 65  1  0  0  0
 36 37  1  0  0  0
 38 33  1  0  0  0
 39 25  1  0  0  0
 40 39  1  0  0  0
 42 43  1  0  0  0
 44 66  1  0  0  0
 44 45  1  0  0  0
 46 67  1  0  0  0
 46 41  1  0  0  0
 47 48  1  0  0  0
 49 50  1  0  0  0
 51 68  1  0  0  0
 51 52  1  0  0  0
 53 48  1  0  0  0
 58 24  1  0  0  0
 60 59  1  0  0  0
 60 26  1  0  0  0
 60 32  1  0  0  0
 62 61  1  0  0  0
 62 41  1  0  0  0
 62 47  1  0  0  0
  3 61  2  0  0  0
  4 54  2  0  0  0
 24 55  2  0  0  0
 25 59  2  0  0  0
 26 27  2  0  0  0
 28 29  2  0  0  0
 30 31  2  0  0  0
 32 39  2  0  0  0
 33 34  2  0  0  0
 35 36  2  0  0  0
 37 38  2  0  0  0
 41 42  2  0  0  0
 43 44  2  0  0  0
 45 46  2  0  0  0
 47  2  2  0  0  0
 48 49  2  0  0  0
 50 51  2  0  0  0
 52 53  2  0  0  0
M  END
> <rmsd>
0.467598766

$$$$
CHEMBL369205_5TGZ


 29 32  0  0  0  0  0  0  0  0999 V2000
   42.7876   27.5907  321.4169 C   0  0  0  0  0
   43.4343   27.1629  320.1391 C   0  0  0  0  0
   44.1966   26.0264  319.9457 C   0  0  0  0  0
   44.5843   25.0250  320.9520 C   0  0  0  0  0
   46.8312   22.1495  320.8560 C   0  0  0  0  0
   46.3349   20.7607  320.5208 C   0  0  0  0  0
   45.1278   20.5774  321.3918 C   0  0  0  0  0
   44.6108   21.9802  321.5921 C   0  0  0  0  0
   43.9861   27.0243  318.0685 C   0  0  0  0  0
   44.2073   27.3608  316.6453 C   0  0  0  0  0
   44.5560   28.6759  316.3034 C   0  0  0  0  0
   44.8041   29.0247  314.9745 C   0  0  0  0  0
   44.7120   28.0585  313.9720 C   0  0  0  0  0
   44.3721   26.7443  314.2984 C   0  0  0  0  0
   44.1243   26.3856  315.6273 C   0  0  0  0  0
   42.5061   28.9630  318.6833 C   0  0  0  0  0
   42.5408   30.0609  319.5560 C   0  0  0  0  0
   41.7651   31.1945  319.2979 C   0  0  0  0  0
   40.9461   31.2378  318.1667 C   0  0  0  0  0
   40.8996   30.1468  317.2952 C   0  0  0  0  0
   41.6748   29.0132  317.5534 C   0  0  0  0  0
   44.2334   25.1571  322.1553 O   0  0  0  0  0
   45.3685   23.8968  320.5567 N   0  0  0  0  0
   45.7395   22.8991  321.4707 N   0  0  0  0  0
   44.5492   25.9408  318.6479 N   0  0  0  0  0
   43.2997   27.7923  318.9532 N   0  0  0  0  0
   45.0204   28.4943  312.3056 Cl  0  0  0  0  0
   43.6625   24.7215  315.9569 Cl  0  0  0  0  0
   39.9758   32.6578  317.8430 Cl  0  0  0  0  0
  1  2  1  0  0  0
  3  4  1  0  0  0
  3 25  1  0  0  0
  4 23  1  0  0  0
  5 24  1  0  0  0
  5  6  1  0  0  0
  6  7  1  0  0  0
  7  8  1  0  0  0
  8 24  1  0  0  0
  9 10  1  0  0  0
  9 26  1  0  0  0
 11 12  1  0  0  0
 13 27  1  0  0  0
 13 14  1  0  0  0
 15 28  1  0  0  0
 15 10  1  0  0  0
 17 18  1  0  0  0
 19 29  1  0  0  0
 19 20  1  0  0  0
 21 16  1  0  0  0
 23 24  1  0  0  0
 26 16  1  0  0  0
 26  2  1  0  0  0
  2  3  2  0  0  0
  4 22  2  0  0  0
  9 25  2  0  0  0
 10 11  2  0  0  0
 12 13  2  0  0  0
 14 15  2  0  0  0
 16 17  2  0  0  0
 18 19  2  0  0  0
 20 21  2  0  0  0
M  END
> <rmsd>
0.361090481

$$$$
CHEMBL1269773_5TGZ


 44 46  0  0  0  0  0  0  0  0999 V2000
   42.4481   27.4075  321.4029 C   0  0  0  0  0
   43.1369   27.0336  320.1324 C   0  0  0  0  0
   43.9169   25.9127  319.8976 C   0  0  0  0  0
   44.2020   24.8106  320.8295 C   0  0  0  0  0
   45.3705   22.6248  321.2872 C   0  0  0  0  0
   46.2808   21.6562  320.5569 C   0  0  0  0  0
   46.6323   20.4789  321.4538 C   0  0  0  0  0
   45.4541   19.5299  321.6116 C   0  0  0  0  0
   45.2443   18.7274  320.3383 C   0  0  0  0  0
   44.0807   17.7616  320.4983 C   0  0  0  0  0
   44.5215   16.4784  321.1852 C   0  0  0  0  0
   44.5267   16.6525  322.6945 C   0  0  0  0  0
   44.9953   15.3770  323.3696 C   0  0  0  0  0
   44.5194   13.1504  323.8679 C   0  0  0  0  0
   43.5261   12.0057  323.7455 C   0  0  0  0  0
   43.3966   11.5380  322.3008 C   0  0  0  0  0
   44.6402   10.7828  321.8455 C   0  0  0  0  0
   44.7289    9.4138  322.5021 C   0  0  0  0  0
   43.7093    8.4653  321.8926 C   0  0  0  0  0
   43.7683    7.1137  322.5809 C   0  0  0  0  0
   43.1118    7.1877  323.9497 C   0  0  0  0  0
   43.1973    5.8433  324.6485 C   0  0  0  0  0
   44.2433   27.4122  316.7083 C   0  0  0  0  0
   43.1729   27.7153  315.8529 C   0  0  0  0  0
   43.4007   28.0041  314.5058 C   0  0  0  0  0
   44.7014   27.9865  313.9994 C   0  0  0  0  0
   45.7740   27.6797  314.8393 C   0  0  0  0  0
   45.5538   27.3873  316.1890 C   0  0  0  0  0
   43.2013   27.7681  318.9587 C   0  0  0  0  0
   42.5976   29.1012  318.7276 C   0  0  0  0  0
   43.2656   30.0615  317.9534 C   0  0  0  0  0
   42.7013   31.3230  317.7462 C   0  0  0  0  0
   41.4655   31.6369  318.3170 C   0  0  0  0  0
   40.7965   30.6912  319.0981 C   0  0  0  0  0
   41.3618   29.4295  319.3041 C   0  0  0  0  0
   43.7063   24.8106  321.9888 O   0  0  0  0  0
   45.0467   23.7373  320.4109 N   0  0  0  0  0
   43.9709   14.3524  323.2643 N   0  0  0  0  0
   44.5619    5.5921  325.0792 N   0  0  0  0  0
   44.4113   25.9677  318.6458 N   0  0  0  0  0
   43.9838   27.0889  318.0835 N   0  0  0  0  0
   44.9881   28.3502  312.3119 Cl  0  0  0  0  0
   46.9447   27.0456  317.2053 Cl  0  0  0  0  0
   40.7574   33.2160  318.0571 Cl  0  0  0  0  0
  1  2  1  0  0  0
  2  3  1  0  0  0
  3  4  1  0  0  0
  4 37  1  0  0  0
  5 37  1  0  0  0
  5  6  1  0  0  0
  6  7  1  0  0  0
  7  8  1  0  0  0
  8  9  1  0  0  0
  9 10  1  0  0  0
 10 11  1  0  0  0
 11 12  1  0  0  0
 12 13  1  0  0  0
 13 38  1  0  0  0
 14 38  1  0  0  0
 14 15  1  0  0  0
 15 16  1  0  0  0
 16 17  1  0  0  0
 17 18  1  0  0  0
 18 19  1  0  0  0
 19 20  1  0  0  0
 20 21  1  0  0  0
 21 22  1  0  0  0
 22 39  1  0  0  0
 24 25  1  0  0  0
 26 42  1  0  0  0
 26 27  1  0  0  0
 28 43  1  0  0  0
 28 23  1  0  0  0
 29 30  1  0  0  0
 31 32  1  0  0  0
 33 44  1  0  0  0
 33 34  1  0  0  0
 35 30  1  0  0  0
 41 40  1  0  0  0
 41 23  1  0  0  0
 41 29  1  0  0  0
  3 40  2  0  0  0
  4 36  2  0  0  0
 23 24  2  0  0  0
 25 26  2  0  0  0
 27 28  2  0  0  0
 29  2  2  0  0  0
 30 31  2  0  0  0
 32 33  2  0  0  0
 34 35  2  0  0  0
M  END
> <rmsd>
0.468608946

$$$$
CHEMBL175478_5TGZ


 31 34  0  0  0  0  0  0  0  0999 V2000
   42.8132   27.4932  321.2893 C   0  0  0  0  0
   43.4251   27.1031  319.9827 C   0  0  0  0  0
   44.1415   25.9497  319.7239 C   0  0  0  0  0
   44.5059   24.8884  320.6759 C   0  0  0  0  0
   44.4177   21.8263  321.1920 C   0  0  0  0  0
   44.4541   20.9944  322.4857 C   0  0  0  0  0
   45.7917   21.0780  323.2327 C   0  0  0  0  0
   46.9712   20.4413  322.4835 C   0  0  0  0  0
   46.9015   20.5534  320.9572 C   0  0  0  0  0
   46.7028   21.9878  320.4402 C   0  0  0  0  0
   43.9421   27.0430  317.8993 C   0  0  0  0  0
   44.1558   27.4387  316.4903 C   0  0  0  0  0
   44.5498   28.7546  316.2055 C   0  0  0  0  0
   44.7921   29.1571  314.8907 C   0  0  0  0  0
   44.6489   28.2442  313.8453 C   0  0  0  0  0
   44.2636   26.9295  314.1146 C   0  0  0  0  0
   44.0210   26.5171  315.4287 C   0  0  0  0  0
   42.5449   29.0035  318.6281 C   0  0  0  0  0
   42.6330   30.0564  319.5511 C   0  0  0  0  0
   41.8970   31.2289  319.3589 C   0  0  0  0  0
   41.0647   31.3565  318.2439 C   0  0  0  0  0
   40.9651   30.3110  317.3226 C   0  0  0  0  0
   41.7006   29.1384  317.5150 C   0  0  0  0  0
   44.1778   24.9766  321.8897 O   0  0  0  0  0
   45.2416   23.7520  320.2161 N   0  0  0  0  0
   45.5885   22.7013  321.0775 N   0  0  0  0  0
   44.4722   25.9131  318.4181 N   0  0  0  0  0
   43.2976   27.7927  318.8300 N   0  0  0  0  0
   44.9502   28.7474  312.1967 Cl  0  0  0  0  0
   43.5005   24.8577  315.6867 Cl  0  0  0  0  0
   40.1442   32.8253  318.0028 Cl  0  0  0  0  0
  1  2  1  0  0  0
  3  4  1  0  0  0
  3 27  1  0  0  0
  4 25  1  0  0  0
  5 26  1  0  0  0
  5  6  1  0  0  0
  6  7  1  0  0  0
  7  8  1  0  0  0
  8  9  1  0  0  0
  9 10  1  0  0  0
 10 26  1  0  0  0
 11 12  1  0  0  0
 11 28  1  0  0  0
 13 14  1  0  0  0
 15 29  1  0  0  0
 15 16  1  0  0  0
 17 30  1  0  0  0
 17 12  1  0  0  0
 19 20  1  0  0  0
 21 31  1  0  0  0
 21 22  1  0  0  0
 23 18  1  0  0  0
 25 26  1  0  0  0
 28 18  1  0  0  0
 28  2  1  0  0  0
  2  3  2  0  0  0
  4 24  2  0  0  0
 11 27  2  0  0  0
 12 13  2  0  0  0
 14 15  2  0  0  0
 16 17  2  0  0  0
 18 19  2  0  0  0
 20 21  2  0  0  0
 22 23  2  0  0  0
M  END
> <rmsd>
0.199851438

$$$$
CHEMBL177393_6KQI


 31 35  0  0  0  0  0  0  0  0999 V2000
   42.7799   27.5852  321.3848 C   0  0  0  0  0
   43.4179   27.1619  320.1011 C   0  0  0  0  0
   44.1626   26.0161  319.8937 C   0  0  0  0  0
   44.5368   24.9977  320.8878 C   0  0  0  0  0
   45.6828   22.7962  321.3925 C   0  0  0  0  0
   44.4743   21.9002  321.6911 C   0  0  0  0  0
   44.9108   20.5286  321.1788 C   0  0  0  0  0
   45.9996   20.0227  322.1228 C   0  0  0  0  0
   47.1996   20.9153  321.7926 C   0  0  0  0  0
   46.6615   21.8425  320.7062 C   0  0  0  0  0
   45.7267   20.9148  319.9803 C   0  0  0  0  0
   43.9633   27.0375  318.0278 C   0  0  0  0  0
   44.1863   27.3855  316.6077 C   0  0  0  0  0
   44.5526   28.6990  316.2783 C   0  0  0  0  0
   44.8030   29.0578  314.9526 C   0  0  0  0  0
   44.6960   28.1031  313.9407 C   0  0  0  0  0
   44.3386   26.7905  314.2544 C   0  0  0  0  0
   44.0881   26.4218  315.5800 C   0  0  0  0  0
   42.5129   28.9910  318.6668 C   0  0  0  0  0
   42.5640   30.0780  319.5523 C   0  0  0  0  0
   41.8035   31.2251  319.3086 C   0  0  0  0  0
   40.9838   31.2929  318.1791 C   0  0  0  0  0
   40.9212   30.2130  317.2950 C   0  0  0  0  0
   41.6810   29.0658  317.5388 C   0  0  0  0  0
   44.1889   25.1225  322.0931 O   0  0  0  0  0
   45.3024   23.8628  320.4758 N   0  0  0  0  0
   44.5109   25.9393  318.5943 N   0  0  0  0  0
   43.2903   27.8061  318.9223 N   0  0  0  0  0
   45.0073   28.5513  312.2781 Cl  0  0  0  0  0
   43.6040   24.7609  315.8936 Cl  0  0  0  0  0
   40.0323   32.7296  317.8738 Cl  0  0  0  0  0
  1  2  1  0  0  0
  3  4  1  0  0  0
  3 27  1  0  0  0
  4 26  1  0  0  0
  5 26  1  0  0  0
  5  6  1  0  0  0
  7  6  1  0  0  0
  7  8  1  0  0  0
  8  9  1  0  0  0
 10  9  1  0  0  0
 10 11  1  0  0  0
 10  5  1  0  0  0
 11  7  1  0  0  0
 12 13  1  0  0  0
 12 28  1  0  0  0
 14 15  1  0  0  0
 16 29  1  0  0  0
 16 17  1  0  0  0
 18 30  1  0  0  0
 18 13  1  0  0  0
 20 21  1  0  0  0
 22 31  1  0  0  0
 22 23  1  0  0  0
 24 19  1  0  0  0
 28 19  1  0  0  0
 28  2  1  0  0  0
  2  3  2  0  0  0
  4 25  2  0  0  0
 12 27  2  0  0  0
 13 14  2  0  0  0
 15 16  2  0  0  0
 17 18  2  0  0  0
 19 20  2  0  0  0
 21 22  2  0  0  0
 23 24  2  0  0  0
M  END
> <rmsd>
0.27880013

$$$$
CHEMBL482153_6KQI


 33 36  0  0  0  0  0  0  0  0999 V2000
   45.4031   22.6040  318.7573 O   0  0  0  0  0
   44.4379   23.1521  319.3529 C   0  0  0  0  0
   43.1400   23.3278  318.6451 C   0  0  0  0  0
   42.7597   26.7785  317.9697 C   0  0  0  0  0
   42.3197   28.1457  318.3194 C   0  0  0  0  0
   41.6499   28.9126  317.3544 C   0  0  0  0  0
   41.1910   30.1963  317.6553 C   0  0  0  0  0
   41.3923   30.7266  318.9298 C   0  0  0  0  0
   42.0534   29.9741  319.9021 C   0  0  0  0  0
   42.5148   28.6864  319.6104 C   0  0  0  0  0
   43.2649   26.3176  316.7585 C   0  0  0  0  0
   43.6730   27.1064  315.5762 C   0  0  0  0  0
   44.2887   28.3524  315.7688 C   0  0  0  0  0
   44.7177   29.1131  314.6797 C   0  0  0  0  0
   44.5407   28.6326  313.3822 C   0  0  0  0  0
   43.9342   27.3927  313.1741 C   0  0  0  0  0
   43.5031   26.6228  314.2594 C   0  0  0  0  0
   45.8218   23.5042  321.4467 C   0  0  0  0  0
   45.9596   22.1093  321.9554 C   0  0  0  0  0
   46.8338   21.2178  321.3242 C   0  0  0  0  0
   46.9545   19.9056  321.7921 C   0  0  0  0  0
   46.1998   19.4829  322.8906 C   0  0  0  0  0
   45.3239   20.3719  323.5212 C   0  0  0  0  0
   45.2026   21.6840  323.0534 C   0  0  0  0  0
   43.0548   24.6703  318.0970 N   0  0  0  0  0
   42.6353   25.7174  318.7887 N   0  0  0  0  0
   43.4535   24.9895  316.8763 N   0  0  0  0  0
   44.5888   23.6484  320.6847 N   0  0  0  0  0
   40.8194   32.3361  319.3087 Cl  0  0  0  0  0
   43.3764   27.8200  320.8748 Cl  0  0  0  0  0
   45.0762   29.5851  312.0154 Cl  0  0  0  0  0
   42.7106   25.0924  313.9123 Cl  0  0  0  0  0
   44.5918   19.9619  324.5843 F   0  0  0  0  0
  2 28  1  0  0  0
  3  2  1  0  0  0
  3 25  1  0  0  0
  4  5  1  0  0  0
  4 11  1  0  0  0
  6  7  1  0  0  0
  8 29  1  0  0  0
  8  9  1  0  0  0
 10 30  1  0  0  0
 10  5  1  0  0  0
 11 12  1  0  0  0
 13 14  1  0  0  0
 15 31  1  0  0  0
 15 16  1  0  0  0
 17 32  1  0  0  0
 17 12  1  0  0  0
 18 28  1  0  0  0
 18 19  1  0  0  0
 20 21  1  0  0  0
 22 23  1  0  0  0
 23 33  1  0  0  0
 24 19  1  0  0  0
 25 26  1  0  0  0
 25 27  1  0  0  0
  2  1  2  0  0  0
  4 26  2  0  0  0
  5  6  2  0  0  0
  7  8  2  0  0  0
  9 10  2  0  0  0
 11 27  2  0  0  0
 12 13  2  0  0  0
 14 15  2  0  0  0
 16 17  2  0  0  0
 19 20  2  0  0  0
 21 22  2  0  0  0
 23 24  2  0  0  0
M  END
> <rmsd>
0.754975855

$$$$
CHEMBL175368_5TGZ


 30 33  0  0  0  0  0  0  0  0999 V2000
   42.6220   27.4381  321.2931 C   0  0  0  0  0
   43.2419   27.0441  319.9913 C   0  0  0  0  0
   44.0437   25.9396  319.7688 C   0  0  0  0  0
   44.4094   24.8893  320.7330 C   0  0  0  0  0
   44.5360   21.8147  321.1846 C   0  0  0  0  0
   44.8049   20.6801  322.1812 C   0  0  0  0  0
   46.2897   20.5568  322.5339 C   0  0  0  0  0
   47.1669   20.8178  321.3109 C   0  0  0  0  0
   46.8218   22.1525  320.6267 C   0  0  0  0  0
   43.9371   27.0695  317.9626 C   0  0  0  0  0
   44.1495   27.4439  316.5530 C   0  0  0  0  0
   45.4618   27.6389  316.1043 C   0  0  0  0  0
   45.7108   27.9975  314.7776 C   0  0  0  0  0
   44.6478   28.1565  313.8867 C   0  0  0  0  0
   43.3370   27.9403  314.3174 C   0  0  0  0  0
   43.0787   27.5814  315.6440 C   0  0  0  0  0
   42.5386   29.0420  318.6620 C   0  0  0  0  0
   41.3075   29.3177  319.2771 C   0  0  0  0  0
   40.6817   30.5532  319.0901 C   0  0  0  0  0
   41.2820   31.5256  318.2864 C   0  0  0  0  0
   42.5087   31.2636  317.6717 C   0  0  0  0  0
   43.1340   30.0282  317.8595 C   0  0  0  0  0
   43.9693   24.9224  321.9136 O   0  0  0  0  0
   45.2722   23.8256  320.3225 N   0  0  0  0  0
   45.6291   22.7879  321.1955 N   0  0  0  0  0
   44.4837   25.9553  318.4952 N   0  0  0  0  0
   43.1806   27.7644  318.8508 N   0  0  0  0  0
   44.9589   28.6080  312.2249 Cl  0  0  0  0  0
   41.4144   27.2506  316.1032 Cl  0  0  0  0  0
   40.6753   32.7228  318.1045 F   0  0  0  0  0
  1  2  1  0  0  0
  3  4  1  0  0  0
  3 26  1  0  0  0
  4 24  1  0  0  0
  5 25  1  0  0  0
  5  6  1  0  0  0
  6  7  1  0  0  0
  7  8  1  0  0  0
  8  9  1  0  0  0
  9 25  1  0  0  0
 10 11  1  0  0  0
 10 27  1  0  0  0
 12 13  1  0  0  0
 14 28  1  0  0  0
 14 15  1  0  0  0
 16 29  1  0  0  0
 16 11  1  0  0  0
 18 19  1  0  0  0
 20 30  1  0  0  0
 20 21  1  0  0  0
 22 17  1  0  0  0
 24 25  1  0  0  0
 27 17  1  0  0  0
 27  2  1  0  0  0
  2  3  2  0  0  0
  4 23  2  0  0  0
 10 26  2  0  0  0
 11 12  2  0  0  0
 13 14  2  0  0  0
 15 16  2  0  0  0
 17 18  2  0  0  0
 19 20  2  0  0  0
 21 22  2  0  0  0
M  END
> <rmsd>
0.264672428

$$$$
CHEMBL368749_5TGZ


 30 33  0  0  0  0  0  0  0  0999 V2000
   42.8021   27.5314  321.3248 C   0  0  0  0  0
   43.4246   27.1286  320.0270 C   0  0  0  0  0
   44.1546   25.9794  319.7889 C   0  0  0  0  0
   44.5257   24.9361  320.7582 C   0  0  0  0  0
   44.4752   21.8760  321.3093 C   0  0  0  0  0
   44.7460   20.7555  322.3213 C   0  0  0  0  0
   46.2426   20.5354  322.5574 C   0  0  0  0  0
   47.0313   20.6951  321.2589 C   0  0  0  0  0
   46.7248   22.0302  320.5574 C   0  0  0  0  0
   43.9527   27.0434  317.9474 C   0  0  0  0  0
   44.1691   27.4207  316.5336 C   0  0  0  0  0
   44.5505   28.7363  316.2313 C   0  0  0  0  0
   44.7950   29.1220  314.9120 C   0  0  0  0  0
   44.6668   28.1923  313.8795 C   0  0  0  0  0
   44.2941   26.8778  314.1663 C   0  0  0  0  0
   44.0494   26.4821  315.4853 C   0  0  0  0  0
   42.5309   28.9994  318.6402 C   0  0  0  0  0
   41.6909   29.1087  317.5212 C   0  0  0  0  0
   40.9439   30.2704  317.3081 C   0  0  0  0  0
   41.0277   31.3304  318.2142 C   0  0  0  0  0
   41.8556   31.2281  319.3351 C   0  0  0  0  0
   42.6032   30.0666  319.5480 C   0  0  0  0  0
   44.1906   25.0387  321.9689 O   0  0  0  0  0
   45.2760   23.8011  320.3187 N   0  0  0  0  0
   45.6307   22.7672  321.1971 N   0  0  0  0  0
   44.4922   25.9271  318.4853 N   0  0  0  0  0
   43.2955   27.7999  318.8637 N   0  0  0  0  0
   44.9708   28.6744  312.2250 Cl  0  0  0  0  0
   43.5453   24.8213  315.7651 Cl  0  0  0  0  0
   40.0928   32.7855  317.9470 Cl  0  0  0  0  0
  1  2  1  0  0  0
  3  4  1  0  0  0
  3 26  1  0  0  0
  4 24  1  0  0  0
  5 25  1  0  0  0
  5  6  1  0  0  0
  6  7  1  0  0  0
  7  8  1  0  0  0
  8  9  1  0  0  0
  9 25  1  0  0  0
 10 11  1  0  0  0
 10 27  1  0  0  0
 12 13  1  0  0  0
 14 28  1  0  0  0
 14 15  1  0  0  0
 16 29  1  0  0  0
 16 11  1  0  0  0
 18 19  1  0  0  0
 20 30  1  0  0  0
 20 21  1  0  0  0
 22 17  1  0  0  0
 24 25  1  0  0  0
 27 17  1  0  0  0
 27  2  1  0  0  0
  2  3  2  0  0  0
  4 23  2  0  0  0
 10 26  2  0  0  0
 11 12  2  0  0  0
 13 14  2  0  0  0
 15 16  2  0  0  0
 17 18  2  0  0  0
 19 20  2  0  0  0
 21 22  2  0  0  0
M  END
> <rmsd>
0.189289749

$$$$
CHEMBL521084_5TGZ


 34 37  0  0  0  0  0  0  0  0999 V2000
   45.5895   22.6337  318.8090 O   0  0  0  0  0
   44.5945   23.1784  319.3570 C   0  0  0  0  0
   43.3386   23.3685  318.5805 C   0  0  0  0  0
   43.5452   26.4064  316.7867 C   0  0  0  0  0
   43.9144   27.2055  315.6063 C   0  0  0  0  0
   43.3972   26.8285  314.3602 C   0  0  0  0  0
   43.7128   27.5572  313.2114 C   0  0  0  0  0
   44.5561   28.6660  313.2987 C   0  0  0  0  0
   45.0984   29.0358  314.5315 C   0  0  0  0  0
   44.7874   28.3125  315.6872 C   0  0  0  0  0
   42.9787   26.8370  317.9807 C   0  0  0  0  0
   42.4943   28.1922  318.3297 C   0  0  0  0  0
   42.0033   29.0218  317.3098 C   0  0  0  0  0
   41.5209   30.2998  317.5960 C   0  0  0  0  0
   41.5203   30.7647  318.9108 C   0  0  0  0  0
   42.0053   29.9534  319.9374 C   0  0  0  0  0
   42.4896   28.6706  319.6605 C   0  0  0  0  0
   45.8607   23.4983  321.5293 C   0  0  0  0  0
   45.9725   22.0919  322.0197 C   0  0  0  0  0
   46.8969   21.2279  321.4223 C   0  0  0  0  0
   47.0072   19.9050  321.8597 C   0  0  0  0  0
   46.1919   19.4412  322.8957 C   0  0  0  0  0
   45.2655   20.2999  323.4945 C   0  0  0  0  0
   45.1524   21.6240  323.0589 C   0  0  0  0  0
   43.2782   24.7254  318.0656 N   0  0  0  0  0
   43.7206   25.0748  316.8682 N   0  0  0  0  0
   42.8250   25.7537  318.7652 N   0  0  0  0  0
   44.6727   23.6562  320.7016 N   0  0  0  0  0
   44.9495   29.5816  311.8601 Cl  0  0  0  0  0
   45.5698   28.7829  317.1898 Cl  0  0  0  0  0
   40.9163   32.3667  319.2723 Cl  0  0  0  0  0
   43.1306   27.7378  321.0060 Cl  0  0  0  0  0
   47.9031   19.0721  321.2783 F   0  0  0  0  0
   44.2465   22.4441  323.6478 F   0  0  0  0  0
  2 28  1  0  0  0
  3  2  1  0  0  0
  3 25  1  0  0  0
  4  5  1  0  0  0
  4 11  1  0  0  0
  6  7  1  0  0  0
  8 29  1  0  0  0
  8  9  1  0  0  0
 10 30  1  0  0  0
 10  5  1  0  0  0
 11 12  1  0  0  0
 13 14  1  0  0  0
 15 31  1  0  0  0
 15 16  1  0  0  0
 17 32  1  0  0  0
 17 12  1  0  0  0
 18 28  1  0  0  0
 18 19  1  0  0  0
 20 21  1  0  0  0
 21 33  1  0  0  0
 22 23  1  0  0  0
 24 34  1  0  0  0
 24 19  1  0  0  0
 25 26  1  0  0  0
 25 27  1  0  0  0
  2  1  2  0  0  0
  4 26  2  0  0  0
  5  6  2  0  0  0
  7  8  2  0  0  0
  9 10  2  0  0  0
 11 27  2  0  0  0
 12 13  2  0  0  0
 14 15  2  0  0  0
 16 17  2  0  0  0
 19 20  2  0  0  0
 21 22  2  0  0  0
 23 24  2  0  0  0
M  END
> <rmsd>
0.720721364

$$$$
CHEMBL426585_5TGZ


 31 34  0  0  0  0  0  0  0  0999 V2000
   43.3778   27.7547  322.2365 C   0  0  0  0  0
   42.3982   27.3527  321.1505 C   0  0  0  0  0
   43.1333   27.0058  319.8924 C   0  0  0  0  0
   43.8438   25.8425  319.6424 C   0  0  0  0  0
   44.0669   24.7094  320.5558 C   0  0  0  0  0
   46.2378   22.8852  321.8308 C   0  0  0  0  0
   46.5384   21.7740  322.8446 C   0  0  0  0  0
   45.9971   20.4146  322.3936 C   0  0  0  0  0
   46.1584   20.2336  320.8854 C   0  0  0  0  0
   45.5585   21.4100  320.0950 C   0  0  0  0  0
   43.8549   27.0321  317.8711 C   0  0  0  0  0
   44.1655   27.4566  316.4944 C   0  0  0  0  0
   43.7711   26.6293  315.4353 C   0  0  0  0  0
   44.0406   26.9929  314.1140 C   0  0  0  0  0
   44.7144   28.1850  313.8423 C   0  0  0  0  0
   45.1340   29.0053  314.8919 C   0  0  0  0  0
   44.8680   28.6490  316.2176 C   0  0  0  0  0
   42.4218   28.9874  318.5424 C   0  0  0  0  0
   41.8037   29.2424  317.3080 C   0  0  0  0  0
   41.1249   30.4439  317.0888 C   0  0  0  0  0
   41.0562   31.4017  318.1034 C   0  0  0  0  0
   41.6643   31.1574  319.3370 C   0  0  0  0  0
   42.3436   29.9558  319.5552 C   0  0  0  0  0
   43.5574   24.7035  321.7084 O   0  0  0  0  0
   44.8609   23.6023  320.1222 N   0  0  0  0  0
   45.1221   22.5094  320.9613 N   0  0  0  0  0
   44.2967   25.8594  318.3733 N   0  0  0  0  0
   43.1294   27.7507  318.7656 N   0  0  0  0  0
   45.0503   28.6426  312.1870 Cl  0  0  0  0  0
   45.4891   29.6858  317.4942 Cl  0  0  0  0  0
   40.2068   32.9069  317.8292 Cl  0  0  0  0  0
  1  2  1  0  0  0
  2  3  1  0  0  0
  4  5  1  0  0  0
  4 27  1  0  0  0
  5 25  1  0  0  0
  6 26  1  0  0  0
  6  7  1  0  0  0
  7  8  1  0  0  0
  8  9  1  0  0  0
  9 10  1  0  0  0
 10 26  1  0  0  0
 11 12  1  0  0  0
 11 28  1  0  0  0
 13 14  1  0  0  0
 15 29  1  0  0  0
 15 16  1  0  0  0
 17 30  1  0  0  0
 17 12  1  0  0  0
 19 20  1  0  0  0
 21 31  1  0  0  0
 21 22  1  0  0  0
 23 18  1  0  0  0
 25 26  1  0  0  0
 28 18  1  0  0  0
 28  3  1  0  0  0
  3  4  2  0  0  0
  5 24  2  0  0  0
 11 27  2  0  0  0
 12 13  2  0  0  0
 14 15  2  0  0  0
 16 17  2  0  0  0
 18 19  2  0  0  0
 20 21  2  0  0  0
 22 23  2  0  0  0
M  END
> <rmsd>
0.287549108

$$$$
CHEMBL459506_5TGZ


 33 36  0  0  0  0  0  0  0  0999 V2000
   40.2293   32.7506  312.9938 C   0  0  0  0  0
   38.9840   32.5148  313.8282 C   0  0  0  0  0
   39.2388   32.8819  315.2797 C   0  0  0  0  0
   40.0553   31.8300  315.9455 C   0  0  0  0  0
   40.3940   31.9595  317.2210 C   0  0  0  0  0
   41.1984   30.9479  317.9117 C   0  0  0  0  0
   41.5862   31.0291  319.2411 C   0  0  0  0  0
   42.3521   29.9298  319.6549 C   0  0  0  0  0
   42.5712   28.9976  318.6445 C   0  0  0  0  0
   43.3021   27.7208  318.8044 C   0  0  0  0  0
   43.4165   26.9894  319.9752 C   0  0  0  0  0
   42.8593   27.3295  321.3174 C   0  0  0  0  0
   44.1019   25.8401  319.6149 C   0  0  0  0  0
   44.4754   24.7129  320.4829 C   0  0  0  0  0
   46.5104   22.8783  321.7058 C   0  0  0  0  0
   47.1127   21.6599  322.4154 C   0  0  0  0  0
   46.2175   20.4217  322.3104 C   0  0  0  0  0
   44.7434   20.8136  322.3378 C   0  0  0  0  0
   44.4035   21.8010  321.2091 C   0  0  0  0  0
   44.1351   27.4388  316.4614 C   0  0  0  0  0
   44.8016   28.6477  316.2122 C   0  0  0  0  0
   45.0522   29.0604  314.9018 C   0  0  0  0  0
   44.6441   28.2645  313.8298 C   0  0  0  0  0
   43.9882   27.0544  314.0675 C   0  0  0  0  0
   43.7363   26.6334  315.3770 C   0  0  0  0  0
   44.1781   24.7286  321.7079 O   0  0  0  0  0
   45.1822   23.5950  319.9205 N   0  0  0  0  0
   45.5934   22.4572  320.6438 N   0  0  0  0  0
   44.3937   25.8883  318.3006 N   0  0  0  0  0
   43.9074   27.0208  317.8143 N   0  0  0  0  0
   44.9539   28.7832  312.1875 Cl  0  0  0  0  0
   42.8809   25.1196  315.6220 Cl  0  0  0  0  0
   41.7930   29.5219  317.2465 S   0  0  0  0  0
  1  2  1  0  0  0
  2  3  1  0  0  0
  3  4  1  0  0  0
  5  6  1  0  0  0
  6 33  1  0  0  0
  7  8  1  0  0  0
  9 10  1  0  0  0
  9 33  1  0  0  0
 11 13  1  0  0  0
 12 11  1  0  0  0
 13 14  1  0  0  0
 14 27  1  0  0  0
 15 28  1  0  0  0
 15 16  1  0  0  0
 16 17  1  0  0  0
 17 18  1  0  0  0
 18 19  1  0  0  0
 19 28  1  0  0  0
 21 22  1  0  0  0
 23 31  1  0  0  0
 23 24  1  0  0  0
 25 32  1  0  0  0
 25 20  1  0  0  0
 27 28  1  0  0  0
 30 29  1  0  0  0
 30 20  1  0  0  0
 30 10  1  0  0  0
  4  5  2  0  0  0
  6  7  2  0  0  0
  8  9  2  0  0  0
 10 11  2  0  0  0
 13 29  2  0  0  0
 14 26  2  0  0  0
 20 21  2  0  0  0
 22 23  2  0  0  0
 24 25  2  0  0  0
M  END
> <rmsd>
0.339645535

$$$$
CHEMBL460986_5TGZ


 34 37  0  0  0  0  0  0  0  0999 V2000
   40.2062   36.0885  318.5692 C   0  0  0  0  0
   41.3597   36.0114  317.5859 C   0  0  0  0  0
   41.0786   34.9714  316.5148 C   0  0  0  0  0
   41.2792   33.6193  317.0452 C   0  0  0  0  0
   41.4434   32.5075  317.4812 C   0  0  0  0  0
   41.6398   31.1845  318.0004 C   0  0  0  0  0
   40.8629   30.5879  318.9809 C   0  0  0  0  0
   41.2914   29.2896  319.2916 C   0  0  0  0  0
   42.3944   28.8783  318.5469 C   0  0  0  0  0
   43.0759   27.5706  318.6859 C   0  0  0  0  0
   43.0776   26.7683  319.8168 C   0  0  0  0  0
   42.4318   27.0521  321.1350 C   0  0  0  0  0
   43.3568   27.8886  321.9973 C   0  0  0  0  0
   43.9195   25.7111  319.5034 C   0  0  0  0  0
   44.2973   24.5833  320.3691 C   0  0  0  0  0
   46.3426   22.9258  321.8073 C   0  0  0  0  0
   46.9810   21.7451  322.5482 C   0  0  0  0  0
   46.2684   20.4206  322.2590 C   0  0  0  0  0
   44.7691   20.6384  322.0796 C   0  0  0  0  0
   44.4785   21.6442  320.9534 C   0  0  0  0  0
   44.1152   27.4132  316.4135 C   0  0  0  0  0
   45.4197   27.7649  316.0441 C   0  0  0  0  0
   45.6952   28.1868  314.7412 C   0  0  0  0  0
   44.6688   28.2515  313.7965 C   0  0  0  0  0
   43.3692   27.8807  314.1496 C   0  0  0  0  0
   43.0858   27.4570  315.4515 C   0  0  0  0  0
   43.8232   24.4893  321.5335 O   0  0  0  0  0
   45.2094   23.5896  319.8732 N   0  0  0  0  0
   45.6480   22.4658  320.6022 N   0  0  0  0  0
   44.3784   25.8621  318.2458 N   0  0  0  0  0
   43.8622   26.9781  317.7544 N   0  0  0  0  0
   45.0135   28.7830  312.1653 Cl  0  0  0  0  0
   41.4466   26.9537  315.8318 Cl  0  0  0  0  0
   42.8500   30.1312  317.5165 S   0  0  0  0  0
  1  2  1  0  0  0
  2  3  1  0  0  0
  3  4  1  0  0  0
  6  5  1  0  0  0
  6 34  1  0  0  0
  7  8  1  0  0  0
  9 10  1  0  0  0
  9 34  1  0  0  0
 11 14  1  0  0  0
 12 11  1  0  0  0
 12 13  1  0  0  0
 14 15  1  0  0  0
 15 28  1  0  0  0
 16 29  1  0  0  0
 16 17  1  0  0  0
 17 18  1  0  0  0
 18 19  1  0  0  0
 19 20  1  0  0  0
 20 29  1  0  0  0
 22 23  1  0  0  0
 24 32  1  0  0  0
 24 25  1  0  0  0
 26 33  1  0  0  0
 26 21  1  0  0  0
 28 29  1  0  0  0
 31 30  1  0  0  0
 31 21  1  0  0  0
 31 10  1  0  0  0
  6  7  2  0  0  0
  8  9  2  0  0  0
 10 11  2  0  0  0
 14 30  2  0  0  0
 15 27  2  0  0  0
 21 22  2  0  0  0
 23 24  2  0  0  0
 25 26  2  0  0  0
  4  5  3  0  0  0
M  END
> <rmsd>
0.345959693

$$$$
CHEMBL460131_5TGZ


 35 39  0  0  0  0  0  0  0  0999 V2000
   38.2473   35.3087  317.8276 C   0  0  0  0  0
   39.0159   35.2167  316.5221 C   0  0  0  0  0
   38.8401   33.8438  315.8955 C   0  0  0  0  0
   39.6634   32.8510  316.5928 C   0  0  0  0  0
   40.3400   32.0345  317.1663 C   0  0  0  0  0
   41.1457   31.0631  317.8488 C   0  0  0  0  0
   41.5516   31.1498  319.1714 C   0  0  0  0  0
   42.3275   30.0521  319.5698 C   0  0  0  0  0
   42.5313   29.1229  318.5527 C   0  0  0  0  0
   43.2655   27.8466  318.6992 C   0  0  0  0  0
   43.3882   27.1078  319.8644 C   0  0  0  0  0
   42.8382   27.4380  321.2121 C   0  0  0  0  0
   44.0732   25.9620  319.4923 C   0  0  0  0  0
   44.4539   24.8297  320.3506 C   0  0  0  0  0
   44.4214   21.9315  321.0901 C   0  0  0  0  0
   44.8402   21.4141  322.4526 C   0  0  0  0  0
   45.1132   19.9217  322.3794 C   0  0  0  0  0
   46.6082   19.7706  322.2130 C   0  0  0  0  0
   47.2063   20.9936  322.8704 C   0  0  0  0  0
   46.1613   22.0907  322.7625 C   0  0  0  0  0
   46.4614   22.9763  321.5688 C   0  0  0  0  0
   44.0873   27.5830  316.3499 C   0  0  0  0  0
   44.7395   28.8011  316.1074 C   0  0  0  0  0
   44.9883   29.2224  314.7993 C   0  0  0  0  0
   44.5929   28.4261  313.7229 C   0  0  0  0  0
   43.9509   27.2072  313.9539 C   0  0  0  0  0
   43.7008   26.7776  315.2609 C   0  0  0  0  0
   44.1637   24.8377  321.5774 O   0  0  0  0  0
   45.1594   23.7166  319.7751 N   0  0  0  0  0
   45.5814   22.5700  320.4795 N   0  0  0  0  0
   44.3571   26.0197  318.1767 N   0  0  0  0  0
   43.8657   27.1543  317.7007 N   0  0  0  0  0
   44.9015   28.9549  312.0836 Cl  0  0  0  0  0
   42.8629   25.2525  315.4965 Cl  0  0  0  0  0
   41.7280   29.6467  317.1674 S   0  0  0  0  0
  1  2  1  0  0  0
  2  3  1  0  0  0
  3  4  1  0  0  0
  6  5  1  0  0  0
  6 35  1  0  0  0
  7  8  1  0  0  0
  9 10  1  0  0  0
  9 35  1  0  0  0
 11 13  1  0  0  0
 12 11  1  0  0  0
 13 14  1  0  0  0
 14 29  1  0  0  0
 15 30  1  0  0  0
 16 15  1  0  0  0
 16 17  1  0  0  0
 17 18  1  0  0  0
 18 19  1  0  0  0
 20 19  1  0  0  0
 20 21  1  0  0  0
 20 16  1  0  0  0
 21 30  1  0  0  0
 23 24  1  0  0  0
 25 33  1  0  0  0
 25 26  1  0  0  0
 27 34  1  0  0  0
 27 22  1  0  0  0
 29 30  1  0  0  0
 32 31  1  0  0  0
 32 22  1  0  0  0
 32 10  1  0  0  0
  6  7  2  0  0  0
  8  9  2  0  0  0
 10 11  2  0  0  0
 13 31  2  0  0  0
 14 28  2  0  0  0
 22 23  2  0  0  0
 24 25  2  0  0  0
 26 27  2  0  0  0
  4  5  3  0  0  0
M  END
> <rmsd>
0.524281979

$$$$
CHEMBL1909850_5TGZ


 29 32  0  0  0  0  0  0  0  0999 V2000
   43.3890   27.9412  322.3357 C   0  0  0  0  0
   42.4256   27.4468  321.2739 C   0  0  0  0  0
   43.1660   27.1141  320.0184 C   0  0  0  0  0
   43.9764   26.0129  319.7672 C   0  0  0  0  0
   44.3182   24.9218  320.6937 C   0  0  0  0  0
   45.5596   22.7535  321.1046 C   0  0  0  0  0
   46.7673   22.0383  320.5049 C   0  0  0  0  0
   47.1511   20.8388  321.3672 C   0  0  0  0  0
   45.9742   19.8734  321.4797 C   0  0  0  0  0
   44.7638   20.5859  322.0772 C   0  0  0  0  0
   44.3811   21.7851  321.2143 C   0  0  0  0  0
   44.1764   27.4956  316.5616 C   0  0  0  0  0
   43.7884   26.6325  315.5289 C   0  0  0  0  0
   44.0593   26.9568  314.1974 C   0  0  0  0  0
   44.7286   28.1434  313.8903 C   0  0  0  0  0
   45.1402   28.9992  314.9147 C   0  0  0  0  0
   44.8724   28.6813  316.2497 C   0  0  0  0  0
   43.1246   27.7951  318.8132 C   0  0  0  0  0
   41.8718   29.8419  319.4338 C   0  0  0  0  0
   41.1409   30.8209  318.7908 C   0  0  0  0  0
   41.1646   30.5121  317.4413 C   0  0  0  0  0
   41.9088   29.3565  317.3132 C   0  0  0  0  0
   43.8387   24.8986  321.8593 O   0  0  0  0  0
   45.1985   23.8817  320.2597 N   0  0  0  0  0
   44.4031   26.0510  318.4879 N   0  0  0  0  0
   43.8940   27.1325  317.9182 N   0  0  0  0  0
   42.3354   28.9650  318.5264 N   0  0  0  0  0
   45.0664   28.5508  312.2223 Cl  0  0  0  0  0
   45.4621   29.7620  317.5027 Cl  0  0  0  0  0
  1  2  1  0  0  0
  2  3  1  0  0  0
  3  4  1  0  0  0
  4  5  1  0  0  0
  5 24  1  0  0  0
  6 24  1  0  0  0
  6  7  1  0  0  0
  7  8  1  0  0  0
  8  9  1  0  0  0
  9 10  1  0  0  0
 10 11  1  0  0  0
 11  6  1  0  0  0
 13 14  1  0  0  0
 15 28  1  0  0  0
 15 16  1  0  0  0
 17 29  1  0  0  0
 17 12  1  0  0  0
 18 27  1  0  0  0
 20 21  1  0  0  0
 22 27  1  0  0  0
 26 25  1  0  0  0
 26 12  1  0  0  0
 26 18  1  0  0  0
 27 19  1  0  0  0
  4 25  2  0  0  0
  5 23  2  0  0  0
 12 13  2  0  0  0
 14 15  2  0  0  0
 16 17  2  0  0  0
 18  3  2  0  0  0
 19 20  2  0  0  0
 21 22  2  0  0  0
M  END
> <rmsd>
0.34399569

$$$$
CHEMBL369097_5TGZ


 30 33  0  0  0  0  0  0  0  0999 V2000
   42.6519   27.4027  321.3082 C   0  0  0  0  0
   44.0080   25.9630  319.7527 C   0  0  0  0  0
   44.3771   24.9148  320.7217 C   0  0  0  0  0
   44.4888   21.8474  321.2088 C   0  0  0  0  0
   44.8597   20.5430  321.9359 C   0  0  0  0  0
   46.2564   20.6041  322.5522 C   0  0  0  0  0
   47.2945   21.0515  321.5196 C   0  0  0  0  0
   46.7616   22.1562  320.5972 C   0  0  0  0  0
   43.9171   27.0568  317.9224 C   0  0  0  0  0
   44.1417   27.4282  316.5147 C   0  0  0  0  0
   45.4608   27.5786  316.0680 C   0  0  0  0  0
   45.7249   27.9361  314.7440 C   0  0  0  0  0
   44.6701   28.1393  313.8531 C   0  0  0  0  0
   43.3517   27.9664  314.2803 C   0  0  0  0  0
   43.0781   27.6083  315.6040 C   0  0  0  0  0
   43.1687   27.7422  318.8720 C   0  0  0  0  0
   42.5032   29.0581  318.7088 C   0  0  0  0  0
   41.3431   29.3645  319.4348 C   0  0  0  0  0
   40.7110   30.6006  319.2744 C   0  0  0  0  0
   41.2347   31.5424  318.3856 C   0  0  0  0  0
   42.3912   31.2494  317.6594 C   0  0  0  0  0
   43.0221   30.0130  317.8213 C   0  0  0  0  0
   43.2253   27.0344  320.0201 N   0  0  0  0  0
   45.2293   23.8434  320.3081 N   0  0  0  0  0
   45.5952   22.8118  321.1848 N   0  0  0  0  0
   44.4502   25.9496  318.4772 N   0  0  0  0  0
   43.9504   24.9547  321.9068 O   0  0  0  0  0
   44.9998   28.5903  312.1949 Cl  0  0  0  0  0
   41.4014   27.3309  316.0550 Cl  0  0  0  0  0
   40.4429   33.0899  318.1831 Cl  0  0  0  0  0
  1 23  1  0  0  0
  2  3  1  0  0  0
  3 24  1  0  0  0
  4 25  1  0  0  0
  4  5  1  0  0  0
  5  6  1  0  0  0
  6  7  1  0  0  0
  7  8  1  0  0  0
  8 25  1  0  0  0
  9 26  1  0  0  0
  9 10  1  0  0  0
 11 12  1  0  0  0
 13 28  1  0  0  0
 13 14  1  0  0  0
 15 29  1  0  0  0
 15 10  1  0  0  0
 16 17  1  0  0  0
 16 23  1  0  0  0
 18 19  1  0  0  0
 20 30  1  0  0  0
 20 21  1  0  0  0
 22 17  1  0  0  0
 23  2  1  0  0  0
 24 25  1  0  0  0
  2 26  2  0  0  0
  3 27  2  0  0  0
  9 16  2  0  0  0
 10 11  2  0  0  0
 12 13  2  0  0  0
 14 15  2  0  0  0
 17 18  2  0  0  0
 19 20  2  0  0  0
 21 22  2  0  0  0
M  END
> <rmsd>
0.265806973

$$$$
CHEMBL565742_5TGZ


 29 32  0  0  0  0  0  0  0  0999 V2000
   42.7950   27.4225  321.3463 C   0  0  0  0  0
   43.3745   27.0591  320.0195 C   0  0  0  0  0
   44.0641   25.9029  319.6894 C   0  0  0  0  0
   44.4315   24.7903  320.5799 C   0  0  0  0  0
   44.1624   24.6999  321.9299 C   0  0  0  0  0
   45.2161   22.9601  321.2818 C   0  0  0  0  0
   45.8995   21.6327  321.3010 C   0  0  0  0  0
   44.9339   20.5459  321.7318 C   0  0  0  0  0
   47.0913   21.6639  322.2379 C   0  0  0  0  0
   44.1218   27.4344  316.4994 C   0  0  0  0  0
   44.6931   28.6864  316.2248 C   0  0  0  0  0
   44.9576   29.0722  314.9091 C   0  0  0  0  0
   44.6585   28.2071  313.8553 C   0  0  0  0  0
   44.0954   26.9561  314.1168 C   0  0  0  0  0
   43.8298   26.5615  315.4318 C   0  0  0  0  0
   43.2717   27.7671  318.8323 C   0  0  0  0  0
   42.5448   29.0430  318.6352 C   0  0  0  0  0
   41.8469   29.2887  317.4433 C   0  0  0  0  0
   41.1504   30.4868  317.2634 C   0  0  0  0  0
   41.1416   31.4479  318.2772 C   0  0  0  0  0
   41.8256   31.2091  319.4718 C   0  0  0  0  0
   42.5224   30.0107  319.6502 C   0  0  0  0  0
   44.6640   23.5322  322.3724 N   0  0  0  0  0
   45.0956   23.6983  320.1626 N   0  0  0  0  0
   44.3679   25.9245  318.3773 N   0  0  0  0  0
   43.8850   27.0454  317.8615 N   0  0  0  0  0
   44.9874   28.6907  312.2061 Cl  0  0  0  0  0
   43.0862   24.9928  315.6977 Cl  0  0  0  0  0
   40.2701   32.9487  318.0526 Cl  0  0  0  0  0
  1  2  1  0  0  0
  2  3  1  0  0  0
  3  4  1  0  0  0
  5 23  1  0  0  0
  6 24  1  0  0  0
  7  6  1  0  0  0
  7  8  1  0  0  0
  7  9  1  0  0  0
 11 12  1  0  0  0
 13 27  1  0  0  0
 13 14  1  0  0  0
 15 28  1  0  0  0
 15 10  1  0  0  0
 16 17  1  0  0  0
 18 19  1  0  0  0
 20 29  1  0  0  0
 20 21  1  0  0  0
 22 17  1  0  0  0
 24  4  1  0  0  0
 26 25  1  0  0  0
 26 10  1  0  0  0
 26 16  1  0  0  0
  3 25  2  0  0  0
  4  5  2  0  0  0
  6 23  2  0  0  0
 10 11  2  0  0  0
 12 13  2  0  0  0
 14 15  2  0  0  0
 16  2  2  0  0  0
 17 18  2  0  0  0
 19 20  2  0  0  0
 21 22  2  0  0  0
M  END
> <rmsd>
0.218826219

$$$$
CHEMBL175292_5TGZ


 30 33  0  0  0  0  0  0  0  0999 V2000
   42.7940   27.5304  321.3239 C   0  0  0  0  0
   43.4179   27.1282  320.0262 C   0  0  0  0  0
   44.1449   25.9773  319.7884 C   0  0  0  0  0
   44.5163   24.9353  320.7589 C   0  0  0  0  0
   44.4444   21.8763  321.3222 C   0  0  0  0  0
   44.7727   20.5718  322.0695 C   0  0  0  0  0
   46.2110   20.5493  322.5853 C   0  0  0  0  0
   47.2020   20.8929  321.4698 C   0  0  0  0  0
   46.6859   22.0113  320.5547 C   0  0  0  0  0
   43.9479   27.0432  317.9474 C   0  0  0  0  0
   44.1670   27.4202  316.5340 C   0  0  0  0  0
   44.5554   28.7338  316.2323 C   0  0  0  0  0
   44.8003   29.1189  314.9131 C   0  0  0  0  0
   44.6653   28.1909  313.8799 C   0  0  0  0  0
   44.2859   26.8782  314.1661 C   0  0  0  0  0
   44.0414   26.4831  315.4850 C   0  0  0  0  0
   42.5321   29.0041  318.6406 C   0  0  0  0  0
   41.7033   29.1238  317.5146 C   0  0  0  0  0
   40.9626   30.2897  317.3018 C   0  0  0  0  0
   41.0410   31.3437  318.2155 C   0  0  0  0  0
   41.8565   31.2305  319.3442 C   0  0  0  0  0
   42.5982   30.0649  319.5563 C   0  0  0  0  0
   44.1968   25.0481  321.9727 O   0  0  0  0  0
   45.2554   23.7935  320.3184 N   0  0  0  0  0
   45.6091   22.7607  321.1983 N   0  0  0  0  0
   44.4833   25.9247  318.4853 N   0  0  0  0  0
   43.2916   27.8009  318.8632 N   0  0  0  0  0
   44.9714   28.6725  312.2258 Cl  0  0  0  0  0
   43.5300   24.8248  315.7649 Cl  0  0  0  0  0
   40.0341   32.9343  317.9232 Br  0  0  0  0  0
  1  2  1  0  0  0
  3  4  1  0  0  0
  3 26  1  0  0  0
  4 24  1  0  0  0
  5 25  1  0  0  0
  5  6  1  0  0  0
  6  7  1  0  0  0
  7  8  1  0  0  0
  8  9  1  0  0  0
  9 25  1  0  0  0
 10 11  1  0  0  0
 10 27  1  0  0  0
 12 13  1  0  0  0
 14 28  1  0  0  0
 14 15  1  0  0  0
 16 29  1  0  0  0
 16 11  1  0  0  0
 18 19  1  0  0  0
 20 30  1  0  0  0
 20 21  1  0  0  0
 22 17  1  0  0  0
 24 25  1  0  0  0
 27 17  1  0  0  0
 27  2  1  0  0  0
  2  3  2  0  0  0
  4 23  2  0  0  0
 10 26  2  0  0  0
 11 12  2  0  0  0
 13 14  2  0  0  0
 15 16  2  0  0  0
 17 18  2  0  0  0
 19 20  2  0  0  0
 21 22  2  0  0  0
M  END
> <rmsd>
0.187444821

$$$$
CHEMBL174163_5TGZ


 33 36  0  0  0  0  0  0  0  0999 V2000
   42.5457   27.4055  321.2541 C   0  0  0  0  0
   43.2479   27.0437  319.9852 C   0  0  0  0  0
   44.0689   25.9499  319.7846 C   0  0  0  0  0
   44.3868   24.8800  320.7437 C   0  0  0  0  0
   44.5071   21.7942  321.1326 C   0  0  0  0  0
   44.8586   20.4538  321.8015 C   0  0  0  0  0
   46.1867   20.5192  322.5532 C   0  0  0  0  0
   47.3036   21.0477  321.6491 C   0  0  0  0  0
   46.8176   22.1627  320.7141 C   0  0  0  0  0
   44.0603   27.1228  317.9990 C   0  0  0  0  0
   44.2963   27.5026  316.5891 C   0  0  0  0  0
   43.2054   27.8909  315.7974 C   0  0  0  0  0
   43.3835   28.2262  314.4539 C   0  0  0  0  0
   44.6563   28.1700  313.8849 C   0  0  0  0  0
   45.7502   27.7789  314.6591 C   0  0  0  0  0
   45.5806   27.4392  316.0052 C   0  0  0  0  0
   42.5957   29.0565  318.6646 C   0  0  0  0  0
   43.2752   30.1128  318.0405 C   0  0  0  0  0
   42.6487   31.3483  317.8596 C   0  0  0  0  0
   41.3389   31.5513  318.3150 C   0  0  0  0  0
   40.6473   32.8613  318.0723 C   0  0  0  0  0
   40.6541   30.4924  318.9266 C   0  0  0  0  0
   41.2806   29.2565  319.1069 C   0  0  0  0  0
   43.8812   24.8840  321.8983 O   0  0  0  0  0
   45.2788   23.8311  320.3586 N   0  0  0  0  0
   45.5947   22.7764  321.2270 N   0  0  0  0  0
   44.5748   25.9944  318.5364 N   0  0  0  0  0
   43.2440   27.7855  318.8582 N   0  0  0  0  0
   44.8818   28.5918  312.2016 Cl  0  0  0  0  0
   47.0101   26.9952  316.9273 Cl  0  0  0  0  0
   41.5637   33.8988  318.0743 F   0  0  0  0  0
   39.7074   33.1016  319.0596 F   0  0  0  0  0
   40.0127   32.8219  316.8447 F   0  0  0  0  0
  1  2  1  0  0  0
  3  4  1  0  0  0
  3 27  1  0  0  0
  4 25  1  0  0  0
  5 26  1  0  0  0
  5  6  1  0  0  0
  6  7  1  0  0  0
  7  8  1  0  0  0
  8  9  1  0  0  0
  9 26  1  0  0  0
 10 11  1  0  0  0
 10 28  1  0  0  0
 12 13  1  0  0  0
 14 29  1  0  0  0
 14 15  1  0  0  0
 16 30  1  0  0  0
 16 11  1  0  0  0
 18 19  1  0  0  0
 20 22  1  0  0  0
 21 20  1  0  0  0
 21 31  1  0  0  0
 21 32  1  0  0  0
 21 33  1  0  0  0
 23 17  1  0  0  0
 25 26  1  0  0  0
 28 17  1  0  0  0
 28  2  1  0  0  0
  2  3  2  0  0  0
  4 24  2  0  0  0
 10 27  2  0  0  0
 11 12  2  0  0  0
 13 14  2  0  0  0
 15 16  2  0  0  0
 17 18  2  0  0  0
 19 20  2  0  0  0
 22 23  2  0  0  0
M  END
> <rmsd>
0.2844145

$$$$
CHEMBL271782_5TGZ


 31 34  0  0  0  0  0  0  0  0999 V2000
   43.9221   27.0864  317.9577 N   0  0  0  0  0
   44.3273   25.9425  318.4897 N   0  0  0  0  0
   42.6395   29.0811  318.6676 N   0  0  0  0  0
   44.8943   23.6472  320.1975 N   0  0  0  0  0
   43.9371   25.9249  319.7821 C   0  0  0  0  0
   43.2633   27.1011  320.0786 C   0  0  0  0  0
   43.2716   27.8095  318.8950 C   0  0  0  0  0
   41.6960   29.3682  317.7505 C   0  0  0  0  0
   41.3074   30.6911  317.8386 C   0  0  0  0  0
   42.0592   31.2444  318.8662 C   0  0  0  0  0
   42.8521   30.2222  319.3508 C   0  0  0  0  0
   43.8456   30.3845  320.4510 C   0  0  0  0  0
   41.0779   28.3794  316.8228 C   0  0  0  0  0
   42.5907   27.4797  321.3545 C   0  0  0  0  0
   44.1977   24.7959  320.6877 C   0  0  0  0  0
   45.2147   22.5035  321.0380 C   0  0  0  0  0
   45.5920   21.3079  320.1524 C   0  0  0  0  0
   46.5567   20.3233  320.8279 C   0  0  0  0  0
   46.3659   20.3103  322.3418 C   0  0  0  0  0
   46.6540   21.6891  322.9519 C   0  0  0  0  0
   46.3461   22.8560  322.0038 C   0  0  0  0  0
   44.1759   27.4524  316.5932 C   0  0  0  0  0
   44.9683   28.5779  316.2838 C   0  0  0  0  0
   45.1989   28.9248  314.9502 C   0  0  0  0  0
   44.6531   28.1612  313.9183 C   0  0  0  0  0
   43.8870   27.0340  314.2150 C   0  0  0  0  0
   43.6526   26.6705  315.5434 C   0  0  0  0  0
   43.8088   24.8372  321.8863 O   0  0  0  0  0
   42.6622   25.2543  315.8583 Cl  0  0  0  0  0
   44.9429   28.6082  312.2516 Cl  0  0  0  0  0
   45.7520   29.5306  317.5327 Cl  0  0  0  0  0
  1  2  1  0  0  0
  1 22  1  0  0  0
  3  8  1  0  0  0
  5  6  1  0  0  0
  5 15  1  0  0  0
  7  3  1  0  0  0
  7  1  1  0  0  0
  9 10  1  0  0  0
 11  3  1  0  0  0
 12 11  1  0  0  0
 13  8  1  0  0  0
 14  6  1  0  0  0
 15  4  1  0  0  0
 16  4  1  0  0  0
 16 17  1  0  0  0
 17 18  1  0  0  0
 18 19  1  0  0  0
 19 20  1  0  0  0
 20 21  1  0  0  0
 21 16  1  0  0  0
 23 24  1  0  0  0
 23 31  1  0  0  0
 25 26  1  0  0  0
 25 30  1  0  0  0
 27 29  1  0  0  0
 27 22  1  0  0  0
  5  2  2  0  0  0
  6  7  2  0  0  0
  8  9  2  0  0  0
 10 11  2  0  0  0
 15 28  2  0  0  0
 22 23  2  0  0  0
 24 25  2  0  0  0
 26 27  2  0  0  0
M  END
> <rmsd>
0.331375122

$$$$
CHEMBL259476_5TGZ


 30 33  0  0  0  0  0  0  0  0999 V2000
   43.9471   27.0183  317.8160 N   0  0  0  0  0
   44.4392   25.8939  318.3168 N   0  0  0  0  0
   42.6187   28.9414  318.6239 N   0  0  0  0  0
   45.2170   23.6115  319.9604 N   0  0  0  0  0
   45.6237   22.4792  320.6945 N   0  0  0  0  0
   44.1295   25.8494  319.6302 C   0  0  0  0  0
   43.4276   26.9936  319.9779 C   0  0  0  0  0
   43.3362   27.7096  318.8033 C   0  0  0  0  0
   41.5835   29.1607  317.7918 C   0  0  0  0  0
   41.1356   30.4639  317.8949 C   0  0  0  0  0
   41.9478   31.0744  318.8423 C   0  0  0  0  0
   42.8357   30.1040  319.2659 C   0  0  0  0  0
   43.9207   30.3359  320.2618 C   0  0  0  0  0
   40.9642   28.1277  316.9129 C   0  0  0  0  0
   42.8245   27.3405  321.2969 C   0  0  0  0  0
   44.4962   24.7279  320.5078 C   0  0  0  0  0
   44.4359   21.8201  321.2433 C   0  0  0  0  0
   44.8134   20.4927  321.9113 C   0  0  0  0  0
   46.2688   20.4722  322.3877 C   0  0  0  0  0
   46.7012   21.8528  322.8718 C   0  0  0  0  0
   46.5263   22.9138  321.7726 C   0  0  0  0  0
   44.1550   27.4437  316.4579 C   0  0  0  0  0
   44.4757   28.7849  316.1946 C   0  0  0  0  0
   44.6998   29.2213  314.8877 C   0  0  0  0  0
   44.6080   28.3195  313.8271 C   0  0  0  0  0
   44.2874   26.9833  314.0728 C   0  0  0  0  0
   44.0636   26.5368  315.3792 C   0  0  0  0  0
   44.1811   24.7477  321.7284 O   0  0  0  0  0
   43.6078   24.8554  315.6059 Cl  0  0  0  0  0
   44.8869   28.8652  312.1880 Cl  0  0  0  0  0
  1  2  1  0  0  0
  1 22  1  0  0  0
  3  9  1  0  0  0
  4  5  1  0  0  0
  6  7  1  0  0  0
  6 16  1  0  0  0
  8  3  1  0  0  0
  8  1  1  0  0  0
 10 11  1  0  0  0
 12  3  1  0  0  0
 13 12  1  0  0  0
 14  9  1  0  0  0
 15  7  1  0  0  0
 16  4  1  0  0  0
 17  5  1  0  0  0
 17 18  1  0  0  0
 18 19  1  0  0  0
 19 20  1  0  0  0
 20 21  1  0  0  0
 21  5  1  0  0  0
 23 24  1  0  0  0
 25 26  1  0  0  0
 25 30  1  0  0  0
 27 29  1  0  0  0
 27 22  1  0  0  0
  6  2  2  0  0  0
  7  8  2  0  0  0
  9 10  2  0  0  0
 11 12  2  0  0  0
 16 28  2  0  0  0
 22 23  2  0  0  0
 24 25  2  0  0  0
 26 27  2  0  0  0
M  END
> <rmsd>
0.354778975

$$$$
CHEMBL15528_5TGZ


 32 36  0  0  0  0  0  0  0  0999 V2000
   42.7204   27.7153  321.3320 C   0  0  0  0  0
   43.3318   27.3241  320.0277 C   0  0  0  0  0
   44.0750   26.1869  319.7555 C   0  0  0  0  0
   44.4742   25.1326  320.7003 C   0  0  0  0  0
   46.6603   22.2270  320.4010 C   0  0  0  0  0
   46.4534   20.7541  320.6956 C   0  0  0  0  0
   47.3678   20.3164  321.8273 C   0  0  0  0  0
   46.5376   20.3684  323.0896 C   0  0  0  0  0
   45.1134   20.1387  322.6375 C   0  0  0  0  0
   45.0326   20.6426  321.2065 C   0  0  0  0  0
   44.4863   22.0566  321.1845 C   0  0  0  0  0
   44.1075   27.5811  316.5029 C   0  0  0  0  0
   44.6244   28.8451  316.1803 C   0  0  0  0  0
   44.8890   29.1854  314.8519 C   0  0  0  0  0
   44.6448   28.2622  313.8339 C   0  0  0  0  0
   44.1365   26.9989  314.1434 C   0  0  0  0  0
   43.8711   26.6498  315.4713 C   0  0  0  0  0
   43.2136   27.9757  318.8098 C   0  0  0  0  0
   42.4336   29.2082  318.5499 C   0  0  0  0  0
   42.3545   30.2158  319.5224 C   0  0  0  0  0
   41.6076   31.3730  319.2849 C   0  0  0  0  0
   40.9295   31.5301  318.0735 C   0  0  0  0  0
   40.9944   30.5283  317.1020 C   0  0  0  0  0
   41.7411   29.3716  317.3409 C   0  0  0  0  0
   44.1523   25.2086  321.9166 O   0  0  0  0  0
   45.2352   24.0170  320.2311 N   0  0  0  0  0
   45.6155   22.9727  321.0864 N   0  0  0  0  0
   44.3949   26.1653  318.4473 N   0  0  0  0  0
   43.8705   27.2409  317.8780 N   0  0  0  0  0
   44.9740   28.6885  312.1689 Cl  0  0  0  0  0
   43.1975   25.0608  315.7971 Cl  0  0  0  0  0
   39.9951   32.9793  317.7751 Cl  0  0  0  0  0
  1  2  1  0  0  0
  2  3  1  0  0  0
  3  4  1  0  0  0
  4 26  1  0  0  0
  5 27  1  0  0  0
  6  5  1  0  0  0
  6  7  1  0  0  0
  7  8  1  0  0  0
  8  9  1  0  0  0
 10  9  1  0  0  0
 10 11  1  0  0  0
 10  6  1  0  0  0
 11 27  1  0  0  0
 13 14  1  0  0  0
 15 30  1  0  0  0
 15 16  1  0  0  0
 17 31  1  0  0  0
 17 12  1  0  0  0
 18 19  1  0  0  0
 20 21  1  0  0  0
 22 32  1  0  0  0
 22 23  1  0  0  0
 24 19  1  0  0  0
 26 27  1  0  0  0
 29 28  1  0  0  0
 29 12  1  0  0  0
 29 18  1  0  0  0
  3 28  2  0  0  0
  4 25  2  0  0  0
 12 13  2  0  0  0
 14 15  2  0  0  0
 16 17  2  0  0  0
 18  2  2  0  0  0
 19 20  2  0  0  0
 21 22  2  0  0  0
 23 24  2  0  0  0
M  END
> <rmsd>
0.449349016

$$$$
CHEMBL1631299_5TGZ


 30 32  0  0  0  0  0  0  0  0999 V2000
   43.1809   28.0897  315.6996 C   0  0  0  0  0
   43.3165   28.4503  314.3578 C   0  0  0  0  0
   44.5742   28.4273  313.7543 C   0  0  0  0  0
   45.6962   28.0486  314.4936 C   0  0  0  0  0
   45.5693   27.6835  315.8376 C   0  0  0  0  0
   44.2995   27.7041  316.4554 C   0  0  0  0  0
   44.2719   26.1506  319.6477 C   0  0  0  0  0
   43.3533   27.1560  319.9088 C   0  0  0  0  0
   43.2866   27.8727  318.7330 C   0  0  0  0  0
   43.0104   30.2871  318.1895 C   0  0  0  0  0
   41.9891   31.2121  318.0860 C   0  0  0  0  0
   40.8171   30.5226  318.3705 C   0  0  0  0  0
   41.1959   29.2210  318.6389 C   0  0  0  0  0
   40.2445   28.1189  318.9596 C   0  0  0  0  0
   44.4549   30.6078  318.0054 C   0  0  0  0  0
   42.6569   27.4583  321.1924 C   0  0  0  0  0
   44.7310   25.1018  320.5709 C   0  0  0  0  0
   46.1839   23.0684  320.9738 C   0  0  0  0  0
   45.1098   21.9929  321.1058 C   0  0  0  0  0
   45.5315   20.8382  322.0133 C   0  0  0  0  0
   46.7642   20.1425  321.4637 C   0  0  0  0  0
   45.8113   21.3338  323.4210 C   0  0  0  0  0
   44.3990   19.8354  322.0724 C   0  0  0  0  0
   44.1273   27.3205  317.8307 N   0  0  0  0  0
   44.7187   26.2683  318.3791 N   0  0  0  0  0
   42.5288   29.0753  318.5240 N   0  0  0  0  0
   45.7035   24.1510  320.1288 N   0  0  0  0  0
   44.2736   25.0410  321.7442 O   0  0  0  0  0
   47.0326   27.2745  316.7195 Cl  0  0  0  0  0
   44.7464   28.8807  312.0730 Cl  0  0  0  0  0
  2  3  1  0  0  0
  3 30  1  0  0  0
  4  5  1  0  0  0
  5 29  1  0  0  0
  6 24  1  0  0  0
  6  1  1  0  0  0
  7  8  1  0  0  0
  7 17  1  0  0  0
  9 26  1  0  0  0
  9 24  1  0  0  0
 11 12  1  0  0  0
 13 26  1  0  0  0
 14 13  1  0  0  0
 15 10  1  0  0  0
 16  8  1  0  0  0
 17 27  1  0  0  0
 18 27  1  0  0  0
 18 19  1  0  0  0
 19 20  1  0  0  0
 20 21  1  0  0  0
 20 22  1  0  0  0
 20 23  1  0  0  0
 24 25  1  0  0  0
 26 10  1  0  0  0
  1  2  2  0  0  0
  3  4  2  0  0  0
  5  6  2  0  0  0
  7 25  2  0  0  0
  8  9  2  0  0  0
 10 11  2  0  0  0
 12 13  2  0  0  0
 17 28  2  0  0  0
M  END
> <rmsd>
0.55990386

$$$$
CHEMBL179507_5TGZ


 31 34  0  0  0  0  0  0  0  0999 V2000
   43.4094   27.8907  322.2755 C   0  0  0  0  0
   42.4880   27.3167  321.2149 C   0  0  0  0  0
   44.0352   25.9748  319.7375 C   0  0  0  0  0
   44.3413   24.8872  320.6862 C   0  0  0  0  0
   45.5633   22.7184  321.1518 C   0  0  0  0  0
   44.3800   21.7524  321.2241 C   0  0  0  0  0
   44.7296   20.5568  322.1056 C   0  0  0  0  0
   45.9593   19.8396  321.5551 C   0  0  0  0  0
   47.1412   20.8026  321.4802 C   0  0  0  0  0
   46.7905   21.9987  320.5991 C   0  0  0  0  0
   43.9887   27.0833  317.9141 C   0  0  0  0  0
   44.2659   27.4774  316.5221 C   0  0  0  0  0
   43.9760   26.5636  315.5008 C   0  0  0  0  0
   44.2191   26.8922  314.1653 C   0  0  0  0  0
   44.7625   28.1364  313.8410 C   0  0  0  0  0
   45.0789   29.0455  314.8527 C   0  0  0  0  0
   44.8386   28.7252  316.1924 C   0  0  0  0  0
   43.1859   27.7402  318.8381 C   0  0  0  0  0
   42.3429   28.9370  318.5977 C   0  0  0  0  0
   41.7939   29.1762  317.3287 C   0  0  0  0  0
   41.0073   30.3077  317.0967 C   0  0  0  0  0
   40.7616   31.2107  318.1336 C   0  0  0  0  0
   41.3011   30.9816  319.4015 C   0  0  0  0  0
   42.0881   29.8497  319.6314 C   0  0  0  0  0
   43.2385   27.0417  319.9932 N   0  0  0  0  0
   45.2346   23.8432  320.2893 N   0  0  0  0  0
   44.5095   25.9735  318.4737 N   0  0  0  0  0
   43.8216   24.8681  321.8343 O   0  0  0  0  0
   45.0651   28.5498  312.1678 Cl  0  0  0  0  0
   45.3321   29.8833  317.4197 Cl  0  0  0  0  0
   39.7773   32.6284  317.8444 Cl  0  0  0  0  0
  1  2  1  0  0  0
  2 25  1  0  0  0
  3  4  1  0  0  0
  4 26  1  0  0  0
  5 26  1  0  0  0
  5  6  1  0  0  0
  6  7  1  0  0  0
  7  8  1  0  0  0
  8  9  1  0  0  0
  9 10  1  0  0  0
 10  5  1  0  0  0
 11 27  1  0  0  0
 11 12  1  0  0  0
 13 14  1  0  0  0
 15 29  1  0  0  0
 15 16  1  0  0  0
 17 30  1  0  0  0
 17 12  1  0  0  0
 18 19  1  0  0  0
 18 25  1  0  0  0
 20 21  1  0  0  0
 22 31  1  0  0  0
 22 23  1  0  0  0
 24 19  1  0  0  0
 25  3  1  0  0  0
  3 27  2  0  0  0
  4 28  2  0  0  0
 11 18  2  0  0  0
 12 13  2  0  0  0
 14 15  2  0  0  0
 16 17  2  0  0  0
 19 20  2  0  0  0
 21 22  2  0  0  0
 23 24  2  0  0  0
M  END
> <rmsd>
0.302191317

$$$$
CHEMBL3341897_5TGZ


 41 45  0  0  0  0  0  0  0  0999 V2000
   43.3524   27.7728  322.3141 C   0  0  0  0  0
   42.3548   27.3916  321.2370 C   0  0  0  0  0
   43.0682   27.0528  319.9671 C   0  0  0  0  0
   43.0795   27.7808  318.7860 C   0  0  0  0  0
   43.7892   25.8999  319.6824 C   0  0  0  0  0
   44.0421   24.7557  320.5729 C   0  0  0  0  0
   46.2605   22.9416  321.7834 C   0  0  0  0  0
   46.8747   21.7388  322.5208 C   0  0  0  0  0
   46.0577   20.4642  322.3180 C   0  0  0  0  0
   45.8196   20.1959  320.8296 C   0  0  0  0  0
   45.5642   21.4854  320.0387 C   0  0  0  0  0
   44.1128   27.4619  316.5292 C   0  0  0  0  0
   44.9365   28.5721  316.2543 C   0  0  0  0  0
   45.2277   28.9099  314.9292 C   0  0  0  0  0
   44.7128   28.1474  313.8782 C   0  0  0  0  0
   43.9144   27.0338  314.1483 C   0  0  0  0  0
   43.6191   26.6902  315.4698 C   0  0  0  0  0
   42.3784   29.0611  318.5301 C   0  0  0  0  0
   42.0136   29.5479  317.2767 C   0  0  0  0  0
   41.3614   30.7874  317.3275 C   0  0  0  0  0
   41.2192   31.2605  318.6222 C   0  0  0  0  0
   40.5941   32.4996  318.9856 C   0  0  0  0  0
   40.0691   33.5408  319.2918 C   0  0  0  0  0
   39.4445   34.7803  319.6566 C   0  0  0  0  0
   38.1134   35.0223  319.3055 C   0  0  0  0  0
   37.5052   36.2300  319.6602 C   0  0  0  0  0
   38.2276   37.2092  320.3580 C   0  0  0  0  0
   39.5564   36.9501  320.7251 C   0  0  0  0  0
   40.1645   35.7424  320.3704 C   0  0  0  0  0
   37.5588   38.4837  320.7845 C   0  0  0  0  0
   43.8001   27.0826  317.8750 N   0  0  0  0  0
   44.2213   25.9463  318.4075 N   0  0  0  0  0
   44.8414   23.6652  320.1081 N   0  0  0  0  0
   45.1305   22.5628  320.9253 N   0  0  0  0  0
   43.5529   24.7263  321.7339 O   0  0  0  0  0
   45.0808   28.5791  312.2228 Cl  0  0  0  0  0
   45.6518   29.5303  317.5410 Cl  0  0  0  0  0
   41.8881   30.1671  319.7023 S   0  0  0  0  0
   36.5779   38.8419  319.8759 F   0  0  0  0  0
   36.9792   38.3017  322.0263 F   0  0  0  0  0
   38.4830   39.5111  320.8631 F   0  0  0  0  0
  1  2  1  0  0  0
  2  3  1  0  0  0
  4 31  1  0  0  0
  4 18  1  0  0  0
  5  6  1  0  0  0
  5  3  1  0  0  0
  6 33  1  0  0  0
  7 34  1  0  0  0
  7  8  1  0  0  0
  8  9  1  0  0  0
  9 10  1  0  0  0
 10 11  1  0  0  0
 11 34  1  0  0  0
 13 14  1  0  0  0
 13 37  1  0  0  0
 15 16  1  0  0  0
 15 36  1  0  0  0
 17 12  1  0  0  0
 18 38  1  0  0  0
 19 20  1  0  0  0
 21 38  1  0  0  0
 21 22  1  0  0  0
 24 23  1  0  0  0
 25 26  1  0  0  0
 27 28  1  0  0  0
 29 24  1  0  0  0
 30 27  1  0  0  0
 30 39  1  0  0  0
 30 40  1  0  0  0
 30 41  1  0  0  0
 31 32  1  0  0  0
 31 12  1  0  0  0
 33 34  1  0  0  0
  3  4  2  0  0  0
  5 32  2  0  0  0
  6 35  2  0  0  0
 12 13  2  0  0  0
 14 15  2  0  0  0
 16 17  2  0  0  0
 18 19  2  0  0  0
 20 21  2  0  0  0
 24 25  2  0  0  0
 26 27  2  0  0  0
 28 29  2  0  0  0
 22 23  3  0  0  0
M  END
> <rmsd>
0.334099799

$$$$
CHEMBL175369_5TGZ


 31 34  0  0  0  0  0  0  0  0999 V2000
   44.0410   25.9672  319.7990 C   0  0  0  0  0
   43.9354   27.0815  317.9830 C   0  0  0  0  0
   43.2349   27.0709  320.0099 C   0  0  0  0  0
   42.6102   27.4738  321.3067 C   0  0  0  0  0
   42.5284   29.0550  318.6618 C   0  0  0  0  0
   41.2951   29.3313  319.2704 C   0  0  0  0  0
   40.6647   30.5623  319.0706 C   0  0  0  0  0
   41.2570   31.5358  318.2611 C   0  0  0  0  0
   42.4925   31.2662  317.6523 C   0  0  0  0  0
   43.1221   30.0356  317.8530 C   0  0  0  0  0
   41.1298   33.7998  317.2733 C   0  0  0  0  0
   44.1506   27.4450  316.5710 C   0  0  0  0  0
   43.0819   27.5720  315.6580 C   0  0  0  0  0
   43.3427   27.9215  314.3293 C   0  0  0  0  0
   44.6540   28.1382  313.9005 C   0  0  0  0  0
   45.7151   27.9894  314.7955 C   0  0  0  0  0
   45.4635   27.6404  316.1242 C   0  0  0  0  0
   44.4077   24.9264  320.7730 C   0  0  0  0  0
   44.5427   21.8554  321.2480 C   0  0  0  0  0
   44.8741   20.6965  322.1851 C   0  0  0  0  0
   46.1651   20.0251  321.7265 C   0  0  0  0  0
   47.2825   21.0564  321.6019 C   0  0  0  0  0
   46.8244   22.1969  320.6957 C   0  0  0  0  0
   44.4844   25.9736  318.5264 N   0  0  0  0  0
   43.1744   27.7812  318.8633 N   0  0  0  0  0
   45.2752   23.8623  320.3738 N   0  0  0  0  0
   45.6332   22.8329  321.2564 N   0  0  0  0  0
   40.6007   32.7561  318.0797 O   0  0  0  0  0
   43.9642   24.9679  321.9521 O   0  0  0  0  0
   44.9683   28.5778  312.2361 Cl  0  0  0  0  0
   41.4172   27.2399  316.1152 Cl  0  0  0  0  0
  1 24  1  0  0  0
  1 18  1  0  0  0
  2 25  1  0  0  0
  2 12  1  0  0  0
  4  3  1  0  0  0
  6  7  1  0  0  0
  8  9  1  0  0  0
  8 28  1  0  0  0
 10  5  1  0  0  0
 11 28  1  0  0  0
 13 14  1  0  0  0
 13 31  1  0  0  0
 15 16  1  0  0  0
 15 30  1  0  0  0
 17 12  1  0  0  0
 18 26  1  0  0  0
 19 27  1  0  0  0
 19 20  1  0  0  0
 20 21  1  0  0  0
 21 22  1  0  0  0
 22 23  1  0  0  0
 23 27  1  0  0  0
 25  3  1  0  0  0
 25  5  1  0  0  0
 26 27  1  0  0  0
  2 24  2  0  0  0
  3  1  2  0  0  0
  5  6  2  0  0  0
  7  8  2  0  0  0
  9 10  2  0  0  0
 12 13  2  0  0  0
 14 15  2  0  0  0
 16 17  2  0  0  0
 18 29  2  0  0  0
M  END
> <rmsd>
0.277875841

$$$$
CHEMBL518598_5TGZ


 33 37  0  0  0  0  0  0  0  0999 V2000
   45.7972   23.1766  318.9330 O   0  0  0  0  0
   45.0753   23.9690  319.5966 C   0  0  0  0  0
   46.6300   22.5075  321.7024 C   0  0  0  0  0
   47.1188   21.2976  322.4943 C   0  0  0  0  0
   46.5931   20.0189  321.8502 C   0  0  0  0  0
   45.0736   20.0756  321.7295 C   0  0  0  0  0
   44.6676   21.3350  320.9686 C   0  0  0  0  0
   44.5819   25.2006  318.9532 C   0  0  0  0  0
   44.4232   27.3038  316.1201 C   0  0  0  0  0
   43.9290   26.6513  314.9834 C   0  0  0  0  0
   44.0326   27.2477  313.7246 C   0  0  0  0  0
   44.6377   28.4993  313.5931 C   0  0  0  0  0
   45.1540   29.1476  314.7174 C   0  0  0  0  0
   45.0539   28.5572  315.9807 C   0  0  0  0  0
   43.6033   27.1191  318.4763 C   0  0  0  0  0
   43.7711   26.1863  319.5101 C   0  0  0  0  0
   43.2329   26.1429  320.9207 C   0  0  0  0  0
   42.1962   27.1947  321.2708 C   0  0  0  0  0
   42.8653   28.4716  321.7714 C   0  0  0  0  0
   43.6944   29.1417  320.6815 C   0  0  0  0  0
   42.8615   29.3468  319.4606 C   0  0  0  0  0
   42.1154   30.5254  319.3487 C   0  0  0  0  0
   41.2827   30.7312  318.2480 C   0  0  0  0  0
   41.1851   29.7554  317.2560 C   0  0  0  0  0
   41.9279   28.5780  317.3611 C   0  0  0  0  0
   42.7720   28.3544  318.4595 C   0  0  0  0  0
   44.7423   23.6713  320.9632 N   0  0  0  0  0
   45.1647   22.5245  321.6658 N   0  0  0  0  0
   44.8755   25.5166  317.6789 N   0  0  0  0  0
   44.2939   26.6698  317.3996 N   0  0  0  0  0
   44.7653   29.2481  312.0166 Cl  0  0  0  0  0
   45.7829   29.3836  317.3483 Cl  0  0  0  0  0
   40.3547   32.2088  318.1168 Cl  0  0  0  0  0
  2 27  1  0  0  0
  2  8  1  0  0  0
  3 28  1  0  0  0
  3  4  1  0  0  0
  4  5  1  0  0  0
  5  6  1  0  0  0
  6  7  1  0  0  0
  7 28  1  0  0  0
 10 11  1  0  0  0
 12 31  1  0  0  0
 12 13  1  0  0  0
 14 32  1  0  0  0
 14  9  1  0  0  0
 16  8  1  0  0  0
 17 16  1  0  0  0
 17 18  1  0  0  0
 18 19  1  0  0  0
 19 20  1  0  0  0
 20 21  1  0  0  0
 22 23  1  0  0  0
 23 33  1  0  0  0
 24 25  1  0  0  0
 26 21  1  0  0  0
 26 15  1  0  0  0
 27 28  1  0  0  0
 30 29  1  0  0  0
 30  9  1  0  0  0
 30 15  1  0  0  0
  2  1  2  0  0  0
  8 29  2  0  0  0
  9 10  2  0  0  0
 11 12  2  0  0  0
 13 14  2  0  0  0
 15 16  2  0  0  0
 21 22  2  0  0  0
 23 24  2  0  0  0
 25 26  2  0  0  0
M  END
> <rmsd>
0.444471657

$$$$
CHEMBL376700_5TGZ


 32 36  0  0  0  0  0  0  0  0999 V2000
   41.4413   30.0695  317.2849 C   0  0  0  0  0
   42.1816   28.8869  317.3102 C   0  0  0  0  0
   42.7976   28.4380  318.4900 C   0  0  0  0  0
   42.6310   29.2046  319.6668 C   0  0  0  0  0
   41.8861   30.3886  319.6353 C   0  0  0  0  0
   41.2996   30.8246  318.4474 C   0  0  0  0  0
   43.1764   28.7668  320.9782 C   0  0  0  0  0
   42.5061   27.4637  321.3524 C   0  0  0  0  0
   43.3671   26.2849  320.9358 C   0  0  0  0  0
   43.7957   26.2527  319.4898 C   0  0  0  0  0
   43.5963   27.1749  318.4552 C   0  0  0  0  0
   44.5468   25.2351  318.9124 C   0  0  0  0  0
   45.0417   24.0038  319.5540 C   0  0  0  0  0
   46.6409   22.5468  321.6340 C   0  0  0  0  0
   47.1551   21.4086  322.5234 C   0  0  0  0  0
   46.1350   20.2756  322.6694 C   0  0  0  0  0
   45.3394   20.0918  321.3807 C   0  0  0  0  0
   44.6234   21.3898  320.9724 C   0  0  0  0  0
   44.3714   27.3235  316.0732 C   0  0  0  0  0
   43.8197   26.7053  314.9438 C   0  0  0  0  0
   43.9473   27.2934  313.6832 C   0  0  0  0  0
   44.6349   28.5007  313.5425 C   0  0  0  0  0
   45.2085   29.1129  314.6593 C   0  0  0  0  0
   45.0853   28.5303  315.9243 C   0  0  0  0  0
   40.3733   32.3089  318.4208 Cl  0  0  0  0  0
   45.8721   29.3118  317.2865 Cl  0  0  0  0  0
   44.7922   29.2389  311.9637 Cl  0  0  0  0  0
   44.2293   26.6941  317.3534 N   0  0  0  0  0
   44.7920   25.5288  317.6233 N   0  0  0  0  0
   44.7490   23.7282  320.9342 N   0  0  0  0  0
   45.1763   22.5822  321.6345 N   0  0  0  0  0
   45.7263   23.1901  318.8766 O   0  0  0  0  0
  2  3  1  0  0  0
  3 11  1  0  0  0
  4  5  1  0  0  0
  6 25  1  0  0  0
  6  1  1  0  0  0
  7  4  1  0  0  0
  7  8  1  0  0  0
  8  9  1  0  0  0
  9 10  1  0  0  0
 11 28  1  0  0  0
 12 13  1  0  0  0
 12 10  1  0  0  0
 13 30  1  0  0  0
 14 31  1  0  0  0
 14 15  1  0  0  0
 15 16  1  0  0  0
 16 17  1  0  0  0
 17 18  1  0  0  0
 18 31  1  0  0  0
 20 21  1  0  0  0
 22 23  1  0  0  0
 22 27  1  0  0  0
 24 26  1  0  0  0
 24 19  1  0  0  0
 28 29  1  0  0  0
 28 19  1  0  0  0
 30 31  1  0  0  0
  1  2  2  0  0  0
  3  4  2  0  0  0
  5  6  2  0  0  0
 10 11  2  0  0  0
 12 29  2  0  0  0
 13 32  2  0  0  0
 19 20  2  0  0  0
 21 22  2  0  0  0
 23 24  2  0  0  0
M  END
> <rmsd>
0.423470199

$$$$
CHEMBL1088223_5TGZ


 32 35  0  0  0  0  0  0  0  0999 V2000
   43.3258   27.4061  321.5069 C   0  0  0  0  0
   43.7477   25.9497  319.0033 C   0  0  0  0  0
   44.6869   25.0545  318.5175 C   0  0  0  0  0
   45.2097   23.8403  319.1690 C   0  0  0  0  0
   44.2209   21.8980  322.0960 C   0  0  0  0  0
   44.7534   20.8504  323.0897 C   0  0  0  0  0
   46.1314   20.3278  322.6879 C   0  0  0  0  0
   47.1104   21.4820  322.4570 C   0  0  0  0  0
   46.4413   22.6862  321.7823 C   0  0  0  0  0
   44.4160   26.6035  317.0680 C   0  0  0  0  0
   44.5264   27.3489  315.7938 C   0  0  0  0  0
   43.3571   27.8227  315.1801 C   0  0  0  0  0
   43.4159   28.5057  313.9638 C   0  0  0  0  0
   44.6472   28.7184  313.3437 C   0  0  0  0  0
   45.8191   28.2498  313.9403 C   0  0  0  0  0
   45.7696   27.5628  315.1575 C   0  0  0  0  0
   42.7801   28.1128  318.2181 C   0  0  0  0  0
   43.3554   29.3752  318.0100 C   0  0  0  0  0
   42.5817   30.5322  318.1349 C   0  0  0  0  0
   41.2283   30.4345  318.4688 C   0  0  0  0  0
   40.6482   29.1803  318.6772 C   0  0  0  0  0
   41.4217   28.0233  318.5517 C   0  0  0  0  0
   42.9922   25.9170  320.5956 S   0  0  0  0  0
   41.3434   25.6204  320.4774 O   0  0  0  0  0
   46.1023   23.1643  318.5905 O   0  0  0  0  0
   44.7119   23.4167  320.4403 N   0  0  0  0  0
   45.2166   22.2818  321.0906 N   0  0  0  0  0
   45.1011   25.4630  317.3013 N   0  0  0  0  0
   43.5769   26.9239  318.0843 N   0  0  0  0  0
   44.7234   29.5758  311.8201 Cl  0  0  0  0  0
   47.2922   27.0449  315.8677 Cl  0  0  0  0  0
   40.2594   31.8833  318.6256 Cl  0  0  0  0  0
  1 23  1  0  0  0
  3  4  1  0  0  0
  3 28  1  0  0  0
  4 26  1  0  0  0
  5 27  1  0  0  0
  5  6  1  0  0  0
  6  7  1  0  0  0
  7  8  1  0  0  0
  8  9  1  0  0  0
  9 27  1  0  0  0
 10 11  1  0  0  0
 10 29  1  0  0  0
 12 13  1  0  0  0
 14 30  1  0  0  0
 14 15  1  0  0  0
 16 31  1  0  0  0
 16 11  1  0  0  0
 18 19  1  0  0  0
 20 32  1  0  0  0
 20 21  1  0  0  0
 22 17  1  0  0  0
 23 24  1  0  0  0
 23  2  1  0  0  0
 26 27  1  0  0  0
 29 17  1  0  0  0
 29  2  1  0  0  0
  2  3  2  0  0  0
  4 25  2  0  0  0
 10 28  2  0  0  0
 11 12  2  0  0  0
 13 14  2  0  0  0
 15 16  2  0  0  0
 17 18  2  0  0  0
 19 20  2  0  0  0
 21 22  2  0  0  0
M  CHG  2  23   1  24  -1
M  END
> <rmsd>
0.689623058

$$$$
CHEMBL1098696_5TGZ


 32 35  0  0  0  0  0  0  0  0999 V2000
   43.2961   27.3943  321.6009 C   0  0  0  0  0
   43.6936   25.9850  319.0711 C   0  0  0  0  0
   44.6344   25.1094  318.5455 C   0  0  0  0  0
   45.1754   23.8846  319.1592 C   0  0  0  0  0
   44.2553   21.8812  322.0674 C   0  0  0  0  0
   44.8122   20.8157  323.0282 C   0  0  0  0  0
   46.1825   20.3056  322.5864 C   0  0  0  0  0
   47.1532   21.4671  322.3575 C   0  0  0  0  0
   46.4663   22.6825  321.7217 C   0  0  0  0  0
   44.4882   27.3718  315.8229 C   0  0  0  0  0
   43.3268   27.7257  315.1188 C   0  0  0  0  0
   43.4135   28.3783  313.8875 C   0  0  0  0  0
   44.6637   28.6796  313.3450 C   0  0  0  0  0
   45.8268   28.3298  314.0340 C   0  0  0  0  0
   45.7486   27.6739  315.2667 C   0  0  0  0  0
   43.5504   26.9749  318.1095 C   0  0  0  0  0
   42.7323   28.2018  318.2234 C   0  0  0  0  0
   43.2562   29.4393  317.8225 C   0  0  0  0  0
   42.4879   30.6015  317.9312 C   0  0  0  0  0
   41.1900   30.5346  318.4441 C   0  0  0  0  0
   40.6612   29.3062  318.8487 C   0  0  0  0  0
   41.4303   28.1446  318.7387 C   0  0  0  0  0
   42.9495   25.9234  320.6652 S   0  0  0  0  0
   41.2982   25.6400  320.5495 O   0  0  0  0  0
   46.0580   23.2242  318.5480 O   0  0  0  0  0
   44.7063   23.4342  320.4323 N   0  0  0  0  0
   45.2281   22.2881  321.0487 N   0  0  0  0  0
   45.0228   25.5511  317.3333 N   0  0  0  0  0
   44.3749   26.6775  317.0760 N   0  0  0  0  0
   44.7738   29.4994  311.8029 Cl  0  0  0  0  0
   47.2459   27.3001  316.1053 Cl  0  0  0  0  0
   40.2273   31.9895  318.5807 Cl  0  0  0  0  0
  1 23  1  0  0  0
  2  3  1  0  0  0
  3  4  1  0  0  0
  4 26  1  0  0  0
  5 27  1  0  0  0
  5  6  1  0  0  0
  6  7  1  0  0  0
  7  8  1  0  0  0
  8  9  1  0  0  0
  9 27  1  0  0  0
 11 12  1  0  0  0
 13 30  1  0  0  0
 13 14  1  0  0  0
 15 31  1  0  0  0
 15 10  1  0  0  0
 16 17  1  0  0  0
 18 19  1  0  0  0
 20 32  1  0  0  0
 20 21  1  0  0  0
 22 17  1  0  0  0
 23 24  1  0  0  0
 23  2  1  0  0  0
 26 27  1  0  0  0
 29 28  1  0  0  0
 29 10  1  0  0  0
 29 16  1  0  0  0
  3 28  2  0  0  0
  4 25  2  0  0  0
 10 11  2  0  0  0
 12 13  2  0  0  0
 14 15  2  0  0  0
 16  2  2  0  0  0
 17 18  2  0  0  0
 19 20  2  0  0  0
 21 22  2  0  0  0
M  CHG  2  23   1  24  -1
M  END
> <rmsd>
0.639789104

$$$$
CHEMBL1269775_5TGZ


 45 47  0  0  0  0  0  0  0  0999 V2000
   42.5927   27.1167  321.3227 C   0  0  0  0  0
   43.1612   26.7857  319.9821 C   0  0  0  0  0
   43.8503   25.6371  319.6245 C   0  0  0  0  0
   44.1256   24.4618  320.4661 C   0  0  0  0  0
   45.2486   22.2034  320.7157 C   0  0  0  0  0
   46.2545   22.5480  321.8044 C   0  0  0  0  0
   46.6028   21.3162  322.6215 C   0  0  0  0  0
   45.4371   20.9232  323.5161 C   0  0  0  0  0
   45.7920   19.7037  324.3563 C   0  0  0  0  0
   45.8910   18.4421  323.5053 C   0  0  0  0  0
   44.5287   18.0105  322.9725 C   0  0  0  0  0
   43.6249   17.4743  324.0767 C   0  0  0  0  0
   44.0578   16.0841  324.5159 C   0  0  0  0  0
   44.4490   15.9438  326.8427 C   0  0  0  0  0
   46.1234   15.1735  325.3227 C   0  0  0  0  0
   45.5951   13.7388  325.2943 C   0  0  0  0  0
   46.7588   12.7784  325.1350 C   0  0  0  0  0
   46.2614   11.3413  325.0729 C   0  0  0  0  0
   45.7725   10.8584  326.4315 C   0  0  0  0  0
   46.9415   10.6417  327.3726 C   0  0  0  0  0
   46.4272   10.1344  328.7069 C   0  0  0  0  0
   47.5731    9.9805  329.6900 C   0  0  0  0  0
   47.9933   11.3357  330.2271 C   0  0  0  0  0
   44.1065   27.3315  316.5338 C   0  0  0  0  0
   45.4283   27.4703  316.0920 C   0  0  0  0  0
   45.6971   27.8647  314.7793 C   0  0  0  0  0
   44.6449   28.1166  313.8964 C   0  0  0  0  0
   43.3234   27.9572  314.3200 C   0  0  0  0  0
   43.0467   27.5590  315.6317 C   0  0  0  0  0
   43.1953   27.5918  318.8538 C   0  0  0  0  0
   42.6729   28.9773  318.7467 C   0  0  0  0  0
   43.2800   29.9074  317.8898 C   0  0  0  0  0
   42.7919   31.2134  317.7957 C   0  0  0  0  0
   41.6908   31.6025  318.5608 C   0  0  0  0  0
   41.0807   30.6872  319.4217 C   0  0  0  0  0
   41.5708   29.3818  319.5145 C   0  0  0  0  0
   43.6626   24.3933  321.6377 O   0  0  0  0  0
   44.9208   23.3926  319.9438 N   0  0  0  0  0
   45.0805   16.1794  325.5507 N   0  0  0  0  0
   49.1211   11.1722  331.1238 N   0  0  0  0  0
   44.2649   25.7439  318.3472 N   0  0  0  0  0
   43.8618   26.9174  317.8838 N   0  0  0  0  0
   44.9811   28.6165  312.2532 Cl  0  0  0  0  0
   41.3676   27.3177  316.0930 Cl  0  0  0  0  0
   41.0815   33.2390  318.4465 Cl  0  0  0  0  0
  1  2  1  0  0  0
  2  3  1  0  0  0
  3  4  1  0  0  0
  4 38  1  0  0  0
  5 38  1  0  0  0
  5  6  1  0  0  0
  6  7  1  0  0  0
  7  8  1  0  0  0
  8  9  1  0  0  0
  9 10  1  0  0  0
 10 11  1  0  0  0
 11 12  1  0  0  0
 12 13  1  0  0  0
 13 39  1  0  0  0
 14 39  1  0  0  0
 15 39  1  0  0  0
 15 16  1  0  0  0
 16 17  1  0  0  0
 17 18  1  0  0  0
 18 19  1  0  0  0
 19 20  1  0  0  0
 20 21  1  0  0  0
 21 22  1  0  0  0
 22 23  1  0  0  0
 23 40  1  0  0  0
 25 26  1  0  0  0
 27 43  1  0  0  0
 27 28  1  0  0  0
 29 44  1  0  0  0
 29 24  1  0  0  0
 30 31  1  0  0  0
 32 33  1  0  0  0
 34 45  1  0  0  0
 34 35  1  0  0  0
 36 31  1  0  0  0
 42 41  1  0  0  0
 42 24  1  0  0  0
 42 30  1  0  0  0
  3 41  2  0  0  0
  4 37  2  0  0  0
 24 25  2  0  0  0
 26 27  2  0  0  0
 28 29  2  0  0  0
 30  2  2  0  0  0
 31 32  2  0  0  0
 33 34  2  0  0  0
 35 36  2  0  0  0
M  END
> <rmsd>
0.549025953

$$$$
CHEMBL272203_5TGZ


 28 31  0  0  0  0  0  0  0  0999 V2000
   42.8712   27.3547  321.3521 C   0  0  0  0  0
   43.4524   27.0306  320.0169 C   0  0  0  0  0
   44.1322   25.8825  319.6418 C   0  0  0  0  0
   44.4965   24.7426  320.4971 C   0  0  0  0  0
   45.6061   22.4402  320.6666 C   0  0  0  0  0
   44.3930   21.7074  321.2422 C   0  0  0  0  0
   44.8412   20.4659  322.0081 C   0  0  0  0  0
   45.8120   20.8538  323.1201 C   0  0  0  0  0
   47.0306   21.5593  322.5313 C   0  0  0  0  0
   46.5997   22.8094  321.7695 C   0  0  0  0  0
   44.1546   27.4994  316.4888 C   0  0  0  0  0
   44.2438   26.5403  315.4713 C   0  0  0  0  0
   44.4908   26.9293  314.1524 C   0  0  0  0  0
   44.6624   28.2799  313.8366 C   0  0  0  0  0
   44.5948   29.2470  314.8535 C   0  0  0  0  0
   44.3500   28.8512  316.1712 C   0  0  0  0  0
   43.3429   27.7660  318.8521 C   0  0  0  0  0
   41.7613   29.2649  317.6736 C   0  0  0  0  0
   41.1564   30.4835  317.9100 C   0  0  0  0  0
   41.6238   30.9285  319.1361 C   0  0  0  0  0
   42.4967   29.9648  319.6017 C   0  0  0  0  0
   44.2020   24.7476  321.7230 O   0  0  0  0  0
   45.1907   23.6269  319.9248 N   0  0  0  0  0
   44.4192   25.9412  318.3250 N   0  0  0  0  0
   43.9429   27.0828  317.8475 N   0  0  0  0  0
   42.5792   28.9730  318.6991 N   0  0  0  0  0
   44.9679   28.7233  312.1654 Cl  0  0  0  0  0
   44.8140   30.9556  314.5150 Cl  0  0  0  0  0
  1  2  1  0  0  0
  2  3  1  0  0  0
  3  4  1  0  0  0
  4 23  1  0  0  0
  5 23  1  0  0  0
  5  6  1  0  0  0
  6  7  1  0  0  0
  7  8  1  0  0  0
  8  9  1  0  0  0
  9 10  1  0  0  0
 10  5  1  0  0  0
 12 13  1  0  0  0
 14 27  1  0  0  0
 14 15  1  0  0  0
 15 28  1  0  0  0
 16 11  1  0  0  0
 17 26  1  0  0  0
 19 20  1  0  0  0
 21 26  1  0  0  0
 25 24  1  0  0  0
 25 11  1  0  0  0
 25 17  1  0  0  0
 26 18  1  0  0  0
  3 24  2  0  0  0
  4 22  2  0  0  0
 11 12  2  0  0  0
 13 14  2  0  0  0
 15 16  2  0  0  0
 17  2  2  0  0  0
 18 19  2  0  0  0
 20 21  2  0  0  0
M  END
> <rmsd>
0.357232451

$$$$
CHEMBL261381_5TGZ


 28 31  0  0  0  0  0  0  0  0999 V2000
   42.7823   27.6290  321.4166 C   0  0  0  0  0
   43.3993   27.2435  320.1142 C   0  0  0  0  0
   44.1206   26.0965  319.8227 C   0  0  0  0  0
   44.5024   25.0229  320.7529 C   0  0  0  0  0
   46.6823   22.1137  320.4287 C   0  0  0  0  0
   46.9945   20.7575  321.0858 C   0  0  0  0  0
   46.2322   20.5661  322.3956 C   0  0  0  0  0
   44.7323   20.8004  322.1971 C   0  0  0  0  0
   44.4470   21.9484  321.2206 C   0  0  0  0  0
   44.1516   27.5143  316.5760 C   0  0  0  0  0
   44.3375   28.8464  316.1801 C   0  0  0  0  0
   44.5986   29.1574  314.8440 C   0  0  0  0  0
   44.6897   28.1409  313.8893 C   0  0  0  0  0
   44.5266   26.8013  314.2804 C   0  0  0  0  0
   44.2660   26.4963  315.6196 C   0  0  0  0  0
   43.2891   27.9020  318.9040 C   0  0  0  0  0
   41.6956   29.2775  317.5976 C   0  0  0  0  0
   41.0394   30.4828  317.7495 C   0  0  0  0  0
   41.4494   31.0087  318.9639 C   0  0  0  0  0
   42.3405   30.1045  319.5073 C   0  0  0  0  0
   44.1902   25.0928  321.9720 O   0  0  0  0  0
   45.2372   23.8967  320.2670 N   0  0  0  0  0
   45.6043   22.8376  321.1096 N   0  0  0  0  0
   44.4299   26.0826  318.5097 N   0  0  0  0  0
   43.9284   27.1771  317.9544 N   0  0  0  0  0
   42.4889   29.0704  318.6625 N   0  0  0  0  0
   45.0185   28.5779  312.2209 Cl  0  0  0  0  0
   44.6484   25.4849  313.1249 Cl  0  0  0  0  0
  1  2  1  0  0  0
  2  3  1  0  0  0
  3  4  1  0  0  0
  4 22  1  0  0  0
  5 23  1  0  0  0
  5  6  1  0  0  0
  6  7  1  0  0  0
  7  8  1  0  0  0
  8  9  1  0  0  0
  9 23  1  0  0  0
 11 12  1  0  0  0
 13 27  1  0  0  0
 13 14  1  0  0  0
 14 28  1  0  0  0
 15 10  1  0  0  0
 16 26  1  0  0  0
 18 19  1  0  0  0
 20 26  1  0  0  0
 22 23  1  0  0  0
 25 24  1  0  0  0
 25 10  1  0  0  0
 25 16  1  0  0  0
 26 17  1  0  0  0
  3 24  2  0  0  0
  4 21  2  0  0  0
 10 11  2  0  0  0
 12 13  2  0  0  0
 14 15  2  0  0  0
 16  2  2  0  0  0
 17 18  2  0  0  0
 19 20  2  0  0  0
M  END
> <rmsd>
0.247451335

$$$$
CHEMBL259255_5TGZ


 30 33  0  0  0  0  0  0  0  0999 V2000
   43.9790   27.1745  317.9647 N   0  0  0  0  0
   44.4756   26.0801  318.5260 N   0  0  0  0  0
   42.5250   29.0579  318.6541 N   0  0  0  0  0
   45.2553   23.8904  320.2929 N   0  0  0  0  0
   45.6063   22.8278  321.1380 N   0  0  0  0  0
   44.1285   26.0809  319.8305 C   0  0  0  0  0
   43.3864   27.2177  320.1090 C   0  0  0  0  0
   43.3120   27.8834  318.9045 C   0  0  0  0  0
   41.4258   29.1445  317.8826 C   0  0  0  0  0
   40.9008   30.4225  317.9151 C   0  0  0  0  0
   41.7269   31.1547  318.7592 C   0  0  0  0  0
   42.7016   30.2769  319.1947 C   0  0  0  0  0
   43.8150   30.6436  320.1157 C   0  0  0  0  0
   40.8278   28.0075  317.1256 C   0  0  0  0  0
   42.7279   27.5988  321.3914 C   0  0  0  0  0
   44.4930   25.0045  320.7639 C   0  0  0  0  0
   46.7125   22.1206  320.4856 C   0  0  0  0  0
   47.0193   20.7632  321.1429 C   0  0  0  0  0
   46.2162   20.5527  322.4253 C   0  0  0  0  0
   44.7211   20.7720  322.1791 C   0  0  0  0  0
   44.4552   21.9263  321.2045 C   0  0  0  0  0
   44.1986   27.5130  316.5835 C   0  0  0  0  0
   44.0646   28.8329  316.1286 C   0  0  0  0  0
   44.3028   29.1498  314.7898 C   0  0  0  0  0
   44.6859   28.1535  313.8883 C   0  0  0  0  0
   44.8363   26.8302  314.3353 C   0  0  0  0  0
   44.5961   26.5199  315.6770 C   0  0  0  0  0
   44.1414   25.0615  321.9730 O   0  0  0  0  0
   45.3244   25.5419  313.2470 Cl  0  0  0  0  0
   44.9741   28.5966  312.2138 Cl  0  0  0  0  0
  1  2  1  0  0  0
  1 22  1  0  0  0
  3  9  1  0  0  0
  4  5  1  0  0  0
  6  7  1  0  0  0
  6 16  1  0  0  0
  8  3  1  0  0  0
  8  1  1  0  0  0
 10 11  1  0  0  0
 12  3  1  0  0  0
 13 12  1  0  0  0
 14  9  1  0  0  0
 15  7  1  0  0  0
 16  4  1  0  0  0
 17  5  1  0  0  0
 17 18  1  0  0  0
 18 19  1  0  0  0
 19 20  1  0  0  0
 20 21  1  0  0  0
 21  5  1  0  0  0
 23 24  1  0  0  0
 25 26  1  0  0  0
 25 30  1  0  0  0
 26 29  1  0  0  0
 27 22  1  0  0  0
  6  2  2  0  0  0
  7  8  2  0  0  0
  9 10  2  0  0  0
 11 12  2  0  0  0
 16 28  2  0  0  0
 22 23  2  0  0  0
 24 25  2  0  0  0
 26 27  2  0  0  0
M  END
> <rmsd>
0.23931323

$$$$
CHEMBL261382_5TGZ


 30 33  0  0  0  0  0  0  0  0999 V2000
   44.0476   27.1487  318.0777 N   0  0  0  0  0
   44.5453   26.0763  318.6773 N   0  0  0  0  0
   42.5688   29.0409  318.6680 N   0  0  0  0  0
   45.3304   23.9594  320.5233 N   0  0  0  0  0
   44.0609   26.0378  319.9368 C   0  0  0  0  0
   43.2139   27.1169  320.1389 C   0  0  0  0  0
   43.2291   27.7938  318.9378 C   0  0  0  0  0
   43.1478   30.2010  318.3058 C   0  0  0  0  0
   42.2015   31.1948  318.1439 C   0  0  0  0  0
   40.9747   30.6046  318.4201 C   0  0  0  0  0
   41.2482   29.2889  318.7424 C   0  0  0  0  0
   40.2095   28.2725  319.0746 C   0  0  0  0  0
   44.6163   30.4070  318.1497 C   0  0  0  0  0
   42.5118   27.5161  321.3925 C   0  0  0  0  0
   44.4189   24.9923  320.9069 C   0  0  0  0  0
   45.7092   22.8716  321.4131 C   0  0  0  0  0
   44.5362   21.8899  321.5823 C   0  0  0  0  0
   44.6341   20.7229  320.6028 C   0  0  0  0  0
   45.9202   19.9158  320.8252 C   0  0  0  0  0
   47.0915   20.7585  321.3490 C   0  0  0  0  0
   46.9861   22.2070  320.8812 C   0  0  0  0  0
   44.2811   27.4688  316.6950 C   0  0  0  0  0
   43.2137   27.9111  315.8976 C   0  0  0  0  0
   43.4082   28.2118  314.5482 C   0  0  0  0  0
   44.6742   28.0712  313.9790 C   0  0  0  0  0
   45.7459   27.6348  314.7598 C   0  0  0  0  0
   45.5598   27.3290  316.1117 C   0  0  0  0  0
   43.9296   25.0064  322.0688 O   0  0  0  0  0
   46.9663   26.8412  317.0446 Cl  0  0  0  0  0
   44.9203   28.4493  312.2883 Cl  0  0  0  0  0
  1  2  1  0  0  0
  1 22  1  0  0  0
  3  8  1  0  0  0
  5  6  1  0  0  0
  5 15  1  0  0  0
  7  3  1  0  0  0
  7  1  1  0  0  0
  9 10  1  0  0  0
 11  3  1  0  0  0
 12 11  1  0  0  0
 13  8  1  0  0  0
 14  6  1  0  0  0
 15  4  1  0  0  0
 16  4  1  0  0  0
 16 17  1  0  0  0
 17 18  1  0  0  0
 18 19  1  0  0  0
 19 20  1  0  0  0
 20 21  1  0  0  0
 21 16  1  0  0  0
 23 24  1  0  0  0
 25 26  1  0  0  0
 25 30  1  0  0  0
 27 29  1  0  0  0
 27 22  1  0  0  0
  5  2  2  0  0  0
  6  7  2  0  0  0
  8  9  2  0  0  0
 10 11  2  0  0  0
 15 28  2  0  0  0
 22 23  2  0  0  0
 24 25  2  0  0  0
 26 27  2  0  0  0
M  END
> <rmsd>
0.407170802

$$$$
CHEMBL179473_5TGZ


 30 33  0  0  0  0  0  0  0  0999 V2000
   42.6663   27.3744  321.3230 C   0  0  0  0  0
   44.0345   25.9471  319.7664 C   0  0  0  0  0
   44.4053   24.8959  320.7321 C   0  0  0  0  0
   45.6618   22.7470  321.1987 C   0  0  0  0  0
   44.4886   21.7889  321.4054 C   0  0  0  0  0
   44.8502   20.6687  322.3903 C   0  0  0  0  0
   46.3412   20.3042  322.3846 C   0  0  0  0  0
   46.9643   20.5408  321.0119 C   0  0  0  0  0
   46.8764   22.0187  320.6066 C   0  0  0  0  0
   43.9394   27.0445  317.9387 C   0  0  0  0  0
   44.1592   27.4172  316.5305 C   0  0  0  0  0
   45.4764   27.5800  316.0826 C   0  0  0  0  0
   45.7357   27.9347  314.7569 C   0  0  0  0  0
   44.6780   28.1218  313.8653 C   0  0  0  0  0
   43.3619   27.9376  314.2943 C   0  0  0  0  0
   43.0930   27.5827  315.6199 C   0  0  0  0  0
   43.1845   27.7224  318.8883 C   0  0  0  0  0
   42.5085   29.0329  318.7258 C   0  0  0  0  0
   41.3451   29.3294  319.4507 C   0  0  0  0  0
   40.7037   30.5609  319.2912 C   0  0  0  0  0
   41.2212   31.5077  318.4040 C   0  0  0  0  0
   42.3804   31.2241  317.6783 C   0  0  0  0  0
   43.0206   29.9926  317.8394 C   0  0  0  0  0
   43.2441   27.0125  320.0350 N   0  0  0  0  0
   45.2732   23.8375  320.3173 N   0  0  0  0  0
   44.4789   25.9398  318.4918 N   0  0  0  0  0
   43.9656   24.9243  321.9131 O   0  0  0  0  0
   45.0019   28.5685  312.2047 Cl  0  0  0  0  0
   41.4195   27.2917  316.0737 Cl  0  0  0  0  0
   40.4180   33.0494  318.2026 Cl  0  0  0  0  0
  1 24  1  0  0  0
  2  3  1  0  0  0
  3 25  1  0  0  0
  4 25  1  0  0  0
  4  5  1  0  0  0
  5  6  1  0  0  0
  6  7  1  0  0  0
  7  8  1  0  0  0
  8  9  1  0  0  0
  9  4  1  0  0  0
 10 26  1  0  0  0
 10 11  1  0  0  0
 12 13  1  0  0  0
 14 28  1  0  0  0
 14 15  1  0  0  0
 16 29  1  0  0  0
 16 11  1  0  0  0
 17 18  1  0  0  0
 17 24  1  0  0  0
 19 20  1  0  0  0
 21 30  1  0  0  0
 21 22  1  0  0  0
 23 18  1  0  0  0
 24  2  1  0  0  0
  2 26  2  0  0  0
  3 27  2  0  0  0
 10 17  2  0  0  0
 11 12  2  0  0  0
 13 14  2  0  0  0
 15 16  2  0  0  0
 18 19  2  0  0  0
 20 21  2  0  0  0
 22 23  2  0  0  0
M  END
> <rmsd>
0.277352303

$$$$
CHEMBL1088376_5TGZ


 32 35  0  0  0  0  0  0  0  0999 V2000
   43.5401   28.1694  322.0447 C   0  0  0  0  0
   42.9313   26.8621  319.8690 C   0  0  0  0  0
   43.7344   25.7637  319.5953 C   0  0  0  0  0
   44.0598   24.6434  320.4919 C   0  0  0  0  0
   45.7567   21.4615  319.9754 C   0  0  0  0  0
   45.6444   20.0813  320.6463 C   0  0  0  0  0
   45.3069   20.1498  322.1417 C   0  0  0  0  0
   46.4150   20.7649  323.0084 C   0  0  0  0  0
   47.2364   21.8608  322.3220 C   0  0  0  0  0
   46.3915   22.9967  321.7226 C   0  0  0  0  0
   44.0473   27.3815  316.4676 C   0  0  0  0  0
   45.3797   27.6293  316.1132 C   0  0  0  0  0
   45.7045   28.0195  314.8120 C   0  0  0  0  0
   44.6989   28.1573  313.8531 C   0  0  0  0  0
   43.3700   27.8899  314.1904 C   0  0  0  0  0
   43.0369   27.4990  315.4908 C   0  0  0  0  0
   42.9633   27.6266  318.7114 C   0  0  0  0  0
   42.3281   28.9509  318.5110 C   0  0  0  0  0
   42.9514   29.9269  317.7196 C   0  0  0  0  0
   42.3516   31.1742  317.5266 C   0  0  0  0  0
   41.1222   31.4570  318.1261 C   0  0  0  0  0
   40.4940   30.4938  318.9191 C   0  0  0  0  0
   41.0952   29.2467  319.1104 C   0  0  0  0  0
   42.1060   27.2510  321.4174 S   0  0  0  0  0
   43.5727   24.5881  321.6528 O   0  0  0  0  0
   44.9329   23.6076  320.0352 N   0  0  0  0  0
   45.2945   22.5324  320.8596 N   0  0  0  0  0
   44.2175   25.8653  318.3419 N   0  0  0  0  0
   43.7456   26.9825  317.8109 N   0  0  0  0  0
   45.1052   28.6485  312.2234 Cl  0  0  0  0  0
   41.3600   27.1127  315.8431 Cl  0  0  0  0  0
   40.3697   33.0185  317.8848 Cl  0  0  0  0  0
  1 24  1  0  0  0
  2 24  1  0  0  0
  2  3  1  0  0  0
  3  4  1  0  0  0
  4 26  1  0  0  0
  5 27  1  0  0  0
  5  6  1  0  0  0
  6  7  1  0  0  0
  7  8  1  0  0  0
  8  9  1  0  0  0
  9 10  1  0  0  0
 10 27  1  0  0  0
 12 13  1  0  0  0
 14 30  1  0  0  0
 14 15  1  0  0  0
 16 31  1  0  0  0
 16 11  1  0  0  0
 17 18  1  0  0  0
 19 20  1  0  0  0
 21 32  1  0  0  0
 21 22  1  0  0  0
 23 18  1  0  0  0
 26 27  1  0  0  0
 29 28  1  0  0  0
 29 11  1  0  0  0
 29 17  1  0  0  0
  3 28  2  0  0  0
  4 25  2  0  0  0
 11 12  2  0  0  0
 13 14  2  0  0  0
 15 16  2  0  0  0
 17  2  2  0  0  0
 18 19  2  0  0  0
 20 21  2  0  0  0
 22 23  2  0  0  0
M  END
> <rmsd>
0.343678117

$$$$
CHEMBL578848_5TGZ


 32 37  0  0  0  0  0  0  0  0999 V2000
   42.7853   27.5452  321.3797 C   0  0  0  0  0
   43.3790   27.1709  320.0634 C   0  0  0  0  0
   44.0525   26.0047  319.7361 C   0  0  0  0  0
   44.3971   24.8921  320.6340 C   0  0  0  0  0
   45.4853   22.5847  320.8890 C   0  0  0  0  0
   44.2472   21.9007  321.5008 C   0  0  0  0  0
   44.6732   20.6646  322.3083 C   0  0  0  0  0
   45.3898   19.6756  321.3750 C   0  0  0  0  0
   46.6310   20.3408  320.7588 C   0  0  0  0  0
   47.5865   20.7677  321.8846 C   0  0  0  0  0
   46.8830   21.7631  322.8210 C   0  0  0  0  0
   45.6366   21.0962  323.4264 C   0  0  0  0  0
   46.4553   22.9983  322.0130 C   0  0  0  0  0
   46.1977   21.5836  319.9635 C   0  0  0  0  0
   44.1223   27.5086  316.5288 C   0  0  0  0  0
   44.3539   28.8434  316.1672 C   0  0  0  0  0
   44.6197   29.1802  314.8382 C   0  0  0  0  0
   44.6700   28.1867  313.8567 C   0  0  0  0  0
   44.4604   26.8439  314.2131 C   0  0  0  0  0
   44.1952   26.5130  315.5453 C   0  0  0  0  0
   43.2884   27.8663  318.8723 C   0  0  0  0  0
   42.4358   30.0891  319.5403 C   0  0  0  0  0
   41.5774   31.0422  319.0287 C   0  0  0  0  0
   41.1356   30.5647  317.8054 C   0  0  0  0  0
   41.7408   29.3380  317.6166 C   0  0  0  0  0
   44.0899   24.9420  321.8557 O   0  0  0  0  0
   45.0868   23.7514  320.1072 N   0  0  0  0  0
   44.3540   26.0148  318.4214 N   0  0  0  0  0
   43.8932   27.1430  317.8991 N   0  0  0  0  0
   42.5344   29.0718  318.6679 N   0  0  0  0  0
   45.0060   28.6560  312.1984 Cl  0  0  0  0  0
   44.5280   25.5553  313.0225 Cl  0  0  0  0  0
  1  2  1  0  0  0
  2  3  1  0  0  0
  3  4  1  0  0  0
  4 27  1  0  0  0
  5 27  1  0  0  0
  5  6  1  0  0  0
  7  6  1  0  0  0
  7  8  1  0  0  0
  9  8  1  0  0  0
  9 10  1  0  0  0
  9 14  1  0  0  0
 11 10  1  0  0  0
 11 12  1  0  0  0
 11 13  1  0  0  0
 12  7  1  0  0  0
 13  5  1  0  0  0
 14  5  1  0  0  0
 16 17  1  0  0  0
 18 31  1  0  0  0
 18 19  1  0  0  0
 19 32  1  0  0  0
 20 15  1  0  0  0
 21 30  1  0  0  0
 23 24  1  0  0  0
 25 30  1  0  0  0
 29 28  1  0  0  0
 29 15  1  0  0  0
 29 21  1  0  0  0
 30 22  1  0  0  0
  3 28  2  0  0  0
  4 26  2  0  0  0
 15 16  2  0  0  0
 17 18  2  0  0  0
 19 20  2  0  0  0
 21  2  2  0  0  0
 22 23  2  0  0  0
 24 25  2  0  0  0
M  END
> <rmsd>
0.235942483

$$$$
CHEMBL439657_5TGZ


 30 33  0  0  0  0  0  0  0  0999 V2000
   42.6085   27.4494  321.2809 C   0  0  0  0  0
   43.2797   27.0710  320.0006 C   0  0  0  0  0
   44.0808   25.9676  319.7784 C   0  0  0  0  0
   44.4293   24.9066  320.7366 C   0  0  0  0  0
   46.8198   22.1508  320.6289 C   0  0  0  0  0
   47.1485   20.8083  321.3057 C   0  0  0  0  0
   46.2593   20.5453  322.5196 C   0  0  0  0  0
   44.7786   20.6834  322.1559 C   0  0  0  0  0
   44.5269   21.8277  321.1658 C   0  0  0  0  0
   43.9950   27.1136  317.9730 C   0  0  0  0  0
   44.2234   27.4946  316.5593 C   0  0  0  0  0
   45.2462   26.8665  315.8329 C   0  0  0  0  0
   45.4724   27.1960  314.4935 C   0  0  0  0  0
   44.6730   28.1543  313.8660 C   0  0  0  0  0
   43.6450   28.7787  314.5759 C   0  0  0  0  0
   43.4204   28.4473  315.9147 C   0  0  0  0  0
   42.5601   29.0514  318.6990 C   0  0  0  0  0
   41.1601   29.0835  318.6581 C   0  0  0  0  0
   40.4869   30.2970  318.4973 C   0  0  0  0  0
   41.2096   31.4864  318.3810 C   0  0  0  0  0
   42.6054   31.4649  318.4341 C   0  0  0  0  0
   43.2858   30.2541  318.5951 C   0  0  0  0  0
   43.9799   24.9349  321.9139 O   0  0  0  0  0
   45.2866   23.8390  320.3250 N   0  0  0  0  0
   45.6279   22.7917  321.1929 N   0  0  0  0  0
   44.5308   25.9921  318.5073 N   0  0  0  0  0
   43.2315   27.7942  318.8664 N   0  0  0  0  0
   44.9561   28.5687  312.1895 Cl  0  0  0  0  0
   40.3660   33.0061  318.1775 Cl  0  0  0  0  0
   45.0391   30.2775  318.6863 Cl  0  0  0  0  0
  1  2  1  0  0  0
  3  4  1  0  0  0
  3 26  1  0  0  0
  4 24  1  0  0  0
  5 25  1  0  0  0
  5  6  1  0  0  0
  6  7  1  0  0  0
  7  8  1  0  0  0
  8  9  1  0  0  0
  9 25  1  0  0  0
 10 11  1  0  0  0
 10 27  1  0  0  0
 12 13  1  0  0  0
 14 28  1  0  0  0
 14 15  1  0  0  0
 16 11  1  0  0  0
 18 19  1  0  0  0
 20 29  1  0  0  0
 20 21  1  0  0  0
 22 30  1  0  0  0
 22 17  1  0  0  0
 24 25  1  0  0  0
 27 17  1  0  0  0
 27  2  1  0  0  0
  2  3  2  0  0  0
  4 23  2  0  0  0
 10 26  2  0  0  0
 11 12  2  0  0  0
 13 14  2  0  0  0
 15 16  2  0  0  0
 17 18  2  0  0  0
 19 20  2  0  0  0
 21 22  2  0  0  0
M  END
> <rmsd>
0.269687623

$$$$
CHEMBL175650_6KQI


 30 33  0  0  0  0  0  0  0  0999 V2000
   42.8136   27.5039  321.3366 C   0  0  0  0  0
   43.4362   27.1036  320.0380 C   0  0  0  0  0
   44.1682   25.9559  319.7982 C   0  0  0  0  0
   44.5419   24.9123  320.7661 C   0  0  0  0  0
   45.6731   22.6906  321.2099 C   0  0  0  0  0
   44.4543   21.8325  321.5495 C   0  0  0  0  0
   44.8147   20.7198  322.5432 C   0  0  0  0  0
   46.2687   20.2414  322.4279 C   0  0  0  0  0
   46.7879   20.3858  321.0003 C   0  0  0  0  0
   46.7757   21.8527  320.5479 C   0  0  0  0  0
   43.9626   27.0213  317.9578 C   0  0  0  0  0
   44.1774   27.4004  316.5444 C   0  0  0  0  0
   44.5557   28.7172  316.2430 C   0  0  0  0  0
   44.7986   29.1046  314.9239 C   0  0  0  0  0
   44.6718   28.1756  313.8906 C   0  0  0  0  0
   44.3023   26.8600  314.1763 C   0  0  0  0  0
   44.0592   26.4626  315.4951 C   0  0  0  0  0
   42.5377   28.9739  318.6537 C   0  0  0  0  0
   41.6963   29.0825  317.5356 C   0  0  0  0  0
   40.9466   30.2426  317.3242 C   0  0  0  0  0
   41.0293   31.3022  318.2311 C   0  0  0  0  0
   41.8585   31.2007  319.3511 C   0  0  0  0  0
   42.6087   30.0405  319.5623 C   0  0  0  0  0
   44.2088   25.0156  321.9777 O   0  0  0  0  0
   45.2924   23.7787  320.3224 N   0  0  0  0  0
   44.5047   25.9055  318.4943 N   0  0  0  0  0
   43.3049   27.7757  318.8754 N   0  0  0  0  0
   44.9738   28.6599  312.2363 Cl  0  0  0  0  0
   43.5588   24.8004  315.7737 Cl  0  0  0  0  0
   40.0910   32.7555  317.9662 Cl  0  0  0  0  0
  1  2  1  0  0  0
  3  4  1  0  0  0
  3 26  1  0  0  0
  4 25  1  0  0  0
  5 25  1  0  0  0
  5  6  1  0  0  0
  6  7  1  0  0  0
  7  8  1  0  0  0
  8  9  1  0  0  0
  9 10  1  0  0  0
 10  5  1  0  0  0
 11 12  1  0  0  0
 11 27  1  0  0  0
 13 14  1  0  0  0
 15 28  1  0  0  0
 15 16  1  0  0  0
 17 29  1  0  0  0
 17 12  1  0  0  0
 19 20  1  0  0  0
 21 30  1  0  0  0
 21 22  1  0  0  0
 23 18  1  0  0  0
 27 18  1  0  0  0
 27  2  1  0  0  0
  2  3  2  0  0  0
  4 24  2  0  0  0
 11 26  2  0  0  0
 12 13  2  0  0  0
 14 15  2  0  0  0
 16 17  2  0  0  0
 18 19  2  0  0  0
 20 21  2  0  0  0
 22 23  2  0  0  0
M  END
> <rmsd>
0.197293401

$$$$
CHEMBL360138_6KQI


 29 31  0  0  0  0  0  0  0  0999 V2000
   44.3239   25.9966  319.9370 C   0  0  0  0  0
   44.1033   27.0401  318.0897 C   0  0  0  0  0
   43.4099   27.0182  320.1189 C   0  0  0  0  0
   42.7481   27.3928  321.4058 C   0  0  0  0  0
   42.5031   28.8791  318.7162 C   0  0  0  0  0
   41.2478   29.0456  319.3216 C   0  0  0  0  0
   40.4951   30.1997  319.0879 C   0  0  0  0  0
   40.9913   31.1987  318.2469 C   0  0  0  0  0
   42.2407   31.0453  317.6416 C   0  0  0  0  0
   42.9930   29.8915  317.8761 C   0  0  0  0  0
   44.2779   27.3811  316.6665 C   0  0  0  0  0
   43.2002   27.3708  315.7552 C   0  0  0  0  0
   43.4217   27.7048  314.4156 C   0  0  0  0  0
   44.7033   28.0412  313.9742 C   0  0  0  0  0
   45.7755   28.0286  314.8682 C   0  0  0  0  0
   45.5632   27.6960  316.2079 C   0  0  0  0  0
   44.7935   25.0258  320.9385 C   0  0  0  0  0
   45.5377   21.8697  321.1107 C   0  0  0  0  0
   45.8705   21.4285  319.6902 C   0  0  0  0  0
   46.0451   20.7991  322.0533 C   0  0  0  0  0
   44.0270   21.9573  321.2850 C   0  0  0  0  0
   44.7626   26.0102  318.6629 N   0  0  0  0  0
   43.2761   27.6846  318.9524 N   0  0  0  0  0
   45.7631   24.0438  320.5681 N   0  0  0  0  0
   40.0481   32.6431  317.9529 Cl  0  0  0  0  0
   44.9682   28.4602  312.2960 Cl  0  0  0  0  0
   41.5790   26.8843  316.2300 Cl  0  0  0  0  0
   44.3493   25.0552  322.1175 O   0  0  0  0  0
   46.1799   23.0867  321.4432 O   0  0  0  0  0
  1 22  1  0  0  0
  1 17  1  0  0  0
  2 23  1  0  0  0
  2 11  1  0  0  0
  4  3  1  0  0  0
  6  7  1  0  0  0
  8  9  1  0  0  0
  8 25  1  0  0  0
 10  5  1  0  0  0
 12 13  1  0  0  0
 12 27  1  0  0  0
 14 15  1  0  0  0
 14 26  1  0  0  0
 16 11  1  0  0  0
 17 24  1  0  0  0
 18 29  1  0  0  0
 18 19  1  0  0  0
 18 20  1  0  0  0
 18 21  1  0  0  0
 23  3  1  0  0  0
 23  5  1  0  0  0
 24 29  1  0  0  0
  2 22  2  0  0  0
  3  1  2  0  0  0
  5  6  2  0  0  0
  7  8  2  0  0  0
  9 10  2  0  0  0
 11 12  2  0  0  0
 13 14  2  0  0  0
 15 16  2  0  0  0
 17 28  2  0  0  0
M  END
> <rmsd>
0.524926305

$$$$
CHEMBL361384_5TGZ


 29 32  0  0  0  0  0  0  0  0999 V2000
   42.8274   27.4660  321.4122 C   0  0  0  0  0
   44.1898   25.9967  319.8878 C   0  0  0  0  0
   44.5806   24.9798  320.8814 C   0  0  0  0  0
   45.7541   22.7898  321.3737 C   0  0  0  0  0
   44.5633   21.9004  321.6995 C   0  0  0  0  0
   44.8829   20.5249  321.1518 C   0  0  0  0  0
   46.3853   20.4855  321.0069 C   0  0  0  0  0
   46.7872   21.9091  320.6987 C   0  0  0  0  0
   43.9975   26.9918  318.0056 C   0  0  0  0  0
   44.2191   27.3407  316.5861 C   0  0  0  0  0
   44.5327   28.6667  316.2511 C   0  0  0  0  0
   44.7821   29.0275  314.9257 C   0  0  0  0  0
   44.7270   28.0629  313.9192 C   0  0  0  0  0
   44.4225   26.7383  314.2381 C   0  0  0  0  0
   44.1733   26.3674  315.5634 C   0  0  0  0  0
   43.3120   27.7321  318.9625 C   0  0  0  0  0
   42.4982   28.9490  318.7402 C   0  0  0  0  0
   42.4723   29.9705  319.7003 C   0  0  0  0  0
   41.6988   31.1163  319.4942 C   0  0  0  0  0
   40.9427   31.2479  318.3266 C   0  0  0  0  0
   40.9573   30.2326  317.3669 C   0  0  0  0  0
   41.7305   29.0871  317.5742 C   0  0  0  0  0
   43.4439   27.0957  320.1448 N   0  0  0  0  0
   45.3544   23.8522  320.4628 N   0  0  0  0  0
   44.5500   25.9084  318.5901 N   0  0  0  0  0
   44.2434   25.0996  322.0901 O   0  0  0  0  0
   45.0375   28.5134  312.2570 Cl  0  0  0  0  0
   43.7573   24.6889  315.8811 Cl  0  0  0  0  0
   39.9756   32.6831  318.0674 Cl  0  0  0  0  0
  1 23  1  0  0  0
  2  3  1  0  0  0
  3 24  1  0  0  0
  4 24  1  0  0  0
  4  5  1  0  0  0
  5  6  1  0  0  0
  6  7  1  0  0  0
  7  8  1  0  0  0
  8  4  1  0  0  0
  9 25  1  0  0  0
  9 10  1  0  0  0
 11 12  1  0  0  0
 13 27  1  0  0  0
 13 14  1  0  0  0
 15 28  1  0  0  0
 15 10  1  0  0  0
 16 17  1  0  0  0
 16 23  1  0  0  0
 18 19  1  0  0  0
 20 29  1  0  0  0
 20 21  1  0  0  0
 22 17  1  0  0  0
 23  2  1  0  0  0
  2 25  2  0  0  0
  3 26  2  0  0  0
  9 16  2  0  0  0
 10 11  2  0  0  0
 12 13  2  0  0  0
 14 15  2  0  0  0
 17 18  2  0  0  0
 19 20  2  0  0  0
 21 22  2  0  0  0
M  END
> <rmsd>
0.342484534

$$$$
CHEMBL436471_5TGZ


 30 33  0  0  0  0  0  0  0  0999 V2000
   44.2200   25.0272  321.9355 O   0  0  0  0  0
   44.5509   24.9253  320.7238 C   0  0  0  0  0
   44.4946   21.8651  321.2732 C   0  0  0  0  0
   44.7654   20.7433  322.2837 C   0  0  0  0  0
   46.2622   20.5191  322.5150 C   0  0  0  0  0
   47.0473   20.6775  321.2143 C   0  0  0  0  0
   46.7423   22.0140  320.5146 C   0  0  0  0  0
   44.1804   25.9695  319.7558 C   0  0  0  0  0
   43.9804   27.0319  317.9139 C   0  0  0  0  0
   44.1926   27.4080  316.4989 C   0  0  0  0  0
   44.5517   28.7290  316.1925 C   0  0  0  0  0
   44.7907   29.1149  314.8723 C   0  0  0  0  0
   44.6791   28.1802  313.8425 C   0  0  0  0  0
   44.3281   26.8606  314.1328 C   0  0  0  0  0
   44.0890   26.4646  315.4528 C   0  0  0  0  0
   42.5599   28.9859  318.6053 C   0  0  0  0  0
   41.6846   29.0747  317.5121 C   0  0  0  0  0
   40.9414   30.2379  317.2944 C   0  0  0  0  0
   41.0657   31.3199  318.1696 C   0  0  0  0  0
   41.9312   31.2384  319.2636 C   0  0  0  0  0
   42.6751   30.0754  319.4811 C   0  0  0  0  0
   43.4487   27.1184  319.9943 C   0  0  0  0  0
   45.2973   23.7889  320.2814 N   0  0  0  0  0
   45.6520   22.7534  321.1581 N   0  0  0  0  0
   44.5196   25.9165  318.4527 N   0  0  0  0  0
   43.3235   27.7876  318.8300 N   0  0  0  0  0
   44.9764   28.6625  312.1868 Cl  0  0  0  0  0
   43.6107   24.7966  315.7355 Cl  0  0  0  0  0
   40.1354   32.7768  317.8967 Cl  0  0  0  0  0
   42.7033   27.5916  321.5186 Cl  0  0  0  0  0
  2 23  1  0  0  0
  2  8  1  0  0  0
  3 24  1  0  0  0
  3  4  1  0  0  0
  4  5  1  0  0  0
  5  6  1  0  0  0
  6  7  1  0  0  0
  7 24  1  0  0  0
  8 25  1  0  0  0
  9 10  1  0  0  0
  9 26  1  0  0  0
 11 12  1  0  0  0
 13 27  1  0  0  0
 13 14  1  0  0  0
 15 28  1  0  0  0
 15 10  1  0  0  0
 17 18  1  0  0  0
 19 29  1  0  0  0
 19 20  1  0  0  0
 21 16  1  0  0  0
 22 30  1  0  0  0
 23 24  1  0  0  0
 26 16  1  0  0  0
 26 22  1  0  0  0
  2  1  2  0  0  0
  9 25  2  0  0  0
 10 11  2  0  0  0
 12 13  2  0  0  0
 14 15  2  0  0  0
 16 17  2  0  0  0
 18 19  2  0  0  0
 20 21  2  0  0  0
 22  8  2  0  0  0
M  END
> <rmsd>
0.237692893

$$$$
CHEMBL362643_5TGZ


 30 33  0  0  0  0  0  0  0  0999 V2000
   42.8019   27.4016  321.3185 C   0  0  0  0  0
   43.2842   27.7340  318.8766 C   0  0  0  0  0
   43.9166   26.9920  317.8852 C   0  0  0  0  0
   44.0618   25.9135  319.7253 C   0  0  0  0  0
   44.3998   24.8371  320.6752 C   0  0  0  0  0
   45.5103   22.5417  320.9644 C   0  0  0  0  0
   46.1910   21.5035  320.3185 C   0  0  0  0  0
   46.6055   20.3758  321.0338 C   0  0  0  0  0
   46.3407   20.2802  322.4026 C   0  0  0  0  0
   45.6615   21.3120  323.0558 C   0  0  0  0  0
   45.2477   22.4387  322.3394 C   0  0  0  0  0
   44.1492   27.3830  316.4786 C   0  0  0  0  0
   44.0354   26.4561  315.4187 C   0  0  0  0  0
   44.2972   26.8637  314.1066 C   0  0  0  0  0
   44.6809   28.1786  313.8372 C   0  0  0  0  0
   44.8035   29.0969  314.8804 C   0  0  0  0  0
   44.5422   28.6994  316.1930 C   0  0  0  0  0
   42.5440   29.0056  318.7096 C   0  0  0  0  0
   42.5848   29.9871  319.7098 C   0  0  0  0  0
   41.8805   31.1847  319.5559 C   0  0  0  0  0
   41.1273   31.4082  318.4005 C   0  0  0  0  0
   41.0756   30.4336  317.4009 C   0  0  0  0  0
   41.7797   29.2365  317.5562 C   0  0  0  0  0
   43.3858   27.0445  320.0320 N   0  0  0  0  0
   44.4065   25.8551  318.4217 N   0  0  0  0  0
   45.1016   23.6812  320.1956 N   0  0  0  0  0
   44.0777   24.9355  321.8893 O   0  0  0  0  0
   45.0060   28.6754  312.1912 Cl  0  0  0  0  0
   43.5184   24.7953  315.6741 Cl  0  0  0  0  0
   40.2464   32.9078  318.2067 Cl  0  0  0  0  0
  1 24  1  0  0  0
  2 18  1  0  0  0
  3 25  1  0  0  0
  3 12  1  0  0  0
  4  5  1  0  0  0
  4 24  1  0  0  0
  5 26  1  0  0  0
  7  8  1  0  0  0
  9 10  1  0  0  0
 11  6  1  0  0  0
 13 14  1  0  0  0
 13 29  1  0  0  0
 15 16  1  0  0  0
 15 28  1  0  0  0
 17 12  1  0  0  0
 19 20  1  0  0  0
 21 22  1  0  0  0
 21 30  1  0  0  0
 23 18  1  0  0  0
 24  2  1  0  0  0
 26  6  1  0  0  0
  2  3  2  0  0  0
  4 25  2  0  0  0
  5 27  2  0  0  0
  6  7  2  0  0  0
  8  9  2  0  0  0
 10 11  2  0  0  0
 12 13  2  0  0  0
 14 15  2  0  0  0
 16 17  2  0  0  0
 18 19  2  0  0  0
 20 21  2  0  0  0
 22 23  2  0  0  0
M  END
> <rmsd>
0.22454074

$$$$
CHEMBL427497_5TGZ


 30 33  0  0  0  0  0  0  0  0999 V2000
   44.1939   25.9653  319.7404 C   0  0  0  0  0
   43.4598   27.1142  319.9794 C   0  0  0  0  0
   43.9961   27.0263  317.8979 C   0  0  0  0  0
   44.2057   27.4007  316.4816 C   0  0  0  0  0
   44.1147   26.4534  315.4376 C   0  0  0  0  0
   44.3503   26.8489  314.1169 C   0  0  0  0  0
   44.6847   28.1720  313.8234 C   0  0  0  0  0
   44.7832   29.1109  314.8506 C   0  0  0  0  0
   44.5477   28.7254  316.1716 C   0  0  0  0  0
   42.5777   28.9796  318.5840 C   0  0  0  0  0
   41.6716   29.0494  317.5150 C   0  0  0  0  0
   40.9337   30.2146  317.2896 C   0  0  0  0  0
   41.0955   31.3174  318.1322 C   0  0  0  0  0
   41.9938   31.2553  319.2007 C   0  0  0  0  0
   42.7323   30.0903  319.4260 C   0  0  0  0  0
   44.5660   24.9193  320.7062 C   0  0  0  0  0
   44.5081   21.8583  321.2509 C   0  0  0  0  0
   44.7813   20.7346  322.2586 C   0  0  0  0  0
   46.2787   20.5082  322.4841 C   0  0  0  0  0
   47.0592   20.6677  321.1807 C   0  0  0  0  0
   46.7533   22.0057  320.4843 C   0  0  0  0  0
   43.3390   27.7816  318.8132 N   0  0  0  0  0
   44.5349   25.9120  318.4377 N   0  0  0  0  0
   45.3097   23.7828  320.2594 N   0  0  0  0  0
   45.6663   22.7455  321.1330 N   0  0  0  0  0
   44.9776   28.6535  312.1666 Cl  0  0  0  0  0
   43.6563   24.7802  315.7233 Cl  0  0  0  0  0
   40.1718   32.7767  317.8497 Cl  0  0  0  0  0
   42.6388   27.6319  321.6368 Br  0  0  0  0  0
   44.2405   25.0191  321.9193 O   0  0  0  0  0
  1 16  1  0  0  0
  1 23  1  0  0  0
  2 22  1  0  0  0
  2 29  1  0  0  0
  3  4  1  0  0  0
  5  6  1  0  0  0
  5 27  1  0  0  0
  7  8  1  0  0  0
  7 26  1  0  0  0
  9  4  1  0  0  0
 11 12  1  0  0  0
 13 14  1  0  0  0
 13 28  1  0  0  0
 15 10  1  0  0  0
 16 24  1  0  0  0
 17 25  1  0  0  0
 17 18  1  0  0  0
 18 19  1  0  0  0
 19 20  1  0  0  0
 20 21  1  0  0  0
 21 25  1  0  0  0
 22  3  1  0  0  0
 22 10  1  0  0  0
 24 25  1  0  0  0
  1  2  2  0  0  0
  3 23  2  0  0  0
  4  5  2  0  0  0
  6  7  2  0  0  0
  8  9  2  0  0  0
 10 11  2  0  0  0
 12 13  2  0  0  0
 14 15  2  0  0  0
 16 30  2  0  0  0
M  END
> <rmsd>
0.282925487

$$$$
CHEMBL176198_6KQI


 31 34  0  0  0  0  0  0  0  0999 V2000
   42.5545   27.3850  321.2699 C   0  0  0  0  0
   43.2571   27.0237  320.0012 C   0  0  0  0  0
   44.0802   25.9312  319.8014 C   0  0  0  0  0
   44.4004   24.8625  320.7611 C   0  0  0  0  0
   45.6394   22.7100  321.2548 C   0  0  0  0  0
   44.4522   21.7411  321.3727 C   0  0  0  0  0
   44.8694   20.2766  321.5737 C   0  0  0  0  0
   46.1756   20.1464  322.3608 C   0  0  0  0  0
   47.3352   20.9060  321.6976 C   0  0  0  0  0
   46.8830   22.0038  320.7280 C   0  0  0  0  0
   44.0691   27.1028  318.0148 C   0  0  0  0  0
   44.3044   27.4821  316.6048 C   0  0  0  0  0
   43.2128   27.8685  315.8128 C   0  0  0  0  0
   43.3901   28.2028  314.4690 C   0  0  0  0  0
   44.6629   28.1478  313.8999 C   0  0  0  0  0
   45.7576   27.7589  314.6742 C   0  0  0  0  0
   45.5886   27.4201  316.0206 C   0  0  0  0  0
   42.6009   29.0343  318.6790 C   0  0  0  0  0
   43.2798   30.0926  318.0554 C   0  0  0  0  0
   42.6506   31.3268  317.8725 C   0  0  0  0  0
   41.3389   31.5142  318.3155 C   0  0  0  0  0
   40.6572   30.4688  318.9440 C   0  0  0  0  0
   41.2864   29.2342  319.1264 C   0  0  0  0  0
   43.8943   24.8679  321.9158 O   0  0  0  0  0
   45.9953   20.6049  323.6667 O   0  0  0  0  0
   45.2952   23.8161  320.3745 N   0  0  0  0  0
   44.5859   25.9759  318.5530 N   0  0  0  0  0
   43.2516   27.7646  318.8737 N   0  0  0  0  0
   44.8876   28.5685  312.2162 Cl  0  0  0  0  0
   47.0190   26.9788  316.9429 Cl  0  0  0  0  0
   40.5504   33.0597  318.0859 Cl  0  0  0  0  0
  1  2  1  0  0  0
  3  4  1  0  0  0
  3 27  1  0  0  0
  4 26  1  0  0  0
  5 26  1  0  0  0
  5  6  1  0  0  0
  6  7  1  0  0  0
  7  8  1  0  0  0
  8 25  1  0  0  0
  8  9  1  0  0  0
  9 10  1  0  0  0
 10  5  1  0  0  0
 11 12  1  0  0  0
 11 28  1  0  0  0
 13 14  1  0  0  0
 15 29  1  0  0  0
 15 16  1  0  0  0
 17 30  1  0  0  0
 17 12  1  0  0  0
 19 20  1  0  0  0
 21 31  1  0  0  0
 21 22  1  0  0  0
 23 18  1  0  0  0
 28 18  1  0  0  0
 28  2  1  0  0  0
  2  3  2  0  0  0
  4 24  2  0  0  0
 11 27  2  0  0  0
 12 13  2  0  0  0
 14 15  2  0  0  0
 16 17  2  0  0  0
 18 19  2  0  0  0
 20 21  2  0  0  0
 22 23  2  0  0  0
M  END
> <rmsd>
0.290510654

$$$$
CHEMBL176022_6KQI


 31 34  0  0  0  0  0  0  0  0999 V2000
   42.8698   27.3307  321.2487 C   0  0  0  0  0
   43.4570   26.9717  319.9219 C   0  0  0  0  0
   44.1458   25.8131  319.6157 C   0  0  0  0  0
   44.5004   24.7135  320.5271 C   0  0  0  0  0
   45.6120   22.4295  320.8209 C   0  0  0  0  0
   44.3840   21.6902  321.3712 C   0  0  0  0  0
   44.6701   20.2300  321.7585 C   0  0  0  0  0
   46.1505   19.9116  321.9955 C   0  0  0  0  0
   46.7565   20.6448  323.1956 C   0  0  0  0  0
   46.4537   22.1455  323.2440 C   0  0  0  0  0
   46.6299   22.8541  321.8969 C   0  0  0  0  0
   43.9472   26.9711  317.8312 C   0  0  0  0  0
   44.1524   27.4099  316.4337 C   0  0  0  0  0
   44.5713   28.7260  316.1884 C   0  0  0  0  0
   44.8061   29.1678  314.8850 C   0  0  0  0  0
   44.6304   28.2943  313.8113 C   0  0  0  0  0
   44.2200   26.9797  314.0409 C   0  0  0  0  0
   43.9846   26.5280  315.3435 C   0  0  0  0  0
   42.6010   28.9347  318.6430 C   0  0  0  0  0
   41.7460   29.1244  317.5462 C   0  0  0  0  0
   41.0335   30.3179  317.4027 C   0  0  0  0  0
   41.1668   31.3298  318.3568 C   0  0  0  0  0
   42.0101   31.1474  319.4559 C   0  0  0  0  0
   42.7232   29.9540  319.5993 C   0  0  0  0  0
   44.1853   24.7694  321.7466 O   0  0  0  0  0
   45.2087   23.5776  320.0160 N   0  0  0  0  0
   44.4597   25.8138  318.3051 N   0  0  0  0  0
   43.3300   27.7023  318.7947 N   0  0  0  0  0
   44.9222   28.8468  312.1767 Cl  0  0  0  0  0
   43.4316   24.8723  315.5520 Cl  0  0  0  0  0
   40.2752   32.8248  318.1768 Cl  0  0  0  0  0
  1  2  1  0  0  0
  3  4  1  0  0  0
  3 27  1  0  0  0
  4 26  1  0  0  0
  5 26  1  0  0  0
  5  6  1  0  0  0
  6  7  1  0  0  0
  7  8  1  0  0  0
  8  9  1  0  0  0
  9 10  1  0  0  0
 10 11  1  0  0  0
 11  5  1  0  0  0
 12 13  1  0  0  0
 12 28  1  0  0  0
 14 15  1  0  0  0
 16 29  1  0  0  0
 16 17  1  0  0  0
 18 30  1  0  0  0
 18 13  1  0  0  0
 20 21  1  0  0  0
 22 31  1  0  0  0
 22 23  1  0  0  0
 24 19  1  0  0  0
 28 19  1  0  0  0
 28  2  1  0  0  0
  2  3  2  0  0  0
  4 25  2  0  0  0
 12 27  2  0  0  0
 13 14  2  0  0  0
 15 16  2  0  0  0
 17 18  2  0  0  0
 19 20  2  0  0  0
 21 22  2  0  0  0
 23 24  2  0  0  0
M  END
> <rmsd>
0.310470015

$$$$
CHEMBL474602_5TGZ


 33 36  0  0  0  0  0  0  0  0999 V2000
   46.4776   23.3359  319.1510 O   0  0  0  0  0
   46.0970   24.1771  320.0079 C   0  0  0  0  0
   46.6977   25.5387  320.0200 C   0  0  0  0  0
   45.1037   27.4064  317.4776 C   0  0  0  0  0
   44.9105   27.8006  316.0719 C   0  0  0  0  0
   46.0181   28.2769  315.3591 C   0  0  0  0  0
   45.8888   28.6691  314.0255 C   0  0  0  0  0
   44.6483   28.5831  313.3909 C   0  0  0  0  0
   43.5417   28.0897  314.0847 C   0  0  0  0  0
   43.6631   27.6916  315.4197 C   0  0  0  0  0
   44.4075   27.8335  318.6027 C   0  0  0  0  0
   43.3722   28.8885  318.6951 C   0  0  0  0  0
   43.4112   29.9600  317.7899 C   0  0  0  0  0
   42.4670   30.9861  317.8527 C   0  0  0  0  0
   41.4709   30.9557  318.8271 C   0  0  0  0  0
   41.4147   29.8957  319.7334 C   0  0  0  0  0
   42.3570   28.8633  319.6792 C   0  0  0  0  0
   44.4044   22.5543  320.9723 C   0  0  0  0  0
   45.3082   21.5294  321.5768 C   0  0  0  0  0
   45.9383   20.5963  320.7458 C   0  0  0  0  0
   46.7928   19.6342  321.2905 C   0  0  0  0  0
   47.0213   19.6013  322.6689 C   0  0  0  0  0
   46.3953   20.5312  323.5030 C   0  0  0  0  0
   45.5406   21.4978  322.9618 C   0  0  0  0  0
   45.9074   26.4341  319.1935 N   0  0  0  0  0
   46.0425   26.5303  317.8804 N   0  0  0  0  0
   44.9374   27.2000  319.6667 N   0  0  0  0  0
   45.0585   23.8556  320.9345 N   0  0  0  0  0
   44.4838   29.0807  311.7215 Cl  0  0  0  0  0
   42.2520   26.9964  316.2033 Cl  0  0  0  0  0
   40.2844   32.2400  318.9067 Cl  0  0  0  0  0
   42.1844   27.5459  320.8300 Cl  0  0  0  0  0
   44.9431   22.3951  323.7840 F   0  0  0  0  0
  2 28  1  0  0  0
  3  2  1  0  0  0
  3 25  1  0  0  0
  4  5  1  0  0  0
  4 11  1  0  0  0
  6  7  1  0  0  0
  8 29  1  0  0  0
  8  9  1  0  0  0
 10 30  1  0  0  0
 10  5  1  0  0  0
 11 12  1  0  0  0
 13 14  1  0  0  0
 15 31  1  0  0  0
 15 16  1  0  0  0
 17 32  1  0  0  0
 17 12  1  0  0  0
 18 28  1  0  0  0
 18 19  1  0  0  0
 20 21  1  0  0  0
 22 23  1  0  0  0
 24 33  1  0  0  0
 24 19  1  0  0  0
 25 26  1  0  0  0
 25 27  1  0  0  0
  2  1  2  0  0  0
  4 26  2  0  0  0
  5  6  2  0  0  0
  7  8  2  0  0  0
  9 10  2  0  0  0
 11 27  2  0  0  0
 12 13  2  0  0  0
 14 15  2  0  0  0
 16 17  2  0  0  0
 19 20  2  0  0  0
 21 22  2  0  0  0
 23 24  2  0  0  0
M  END
> <rmsd>
0.735334575

$$$$
CHEMBL1088507_5TGZ


 32 35  0  0  0  0  0  0  0  0999 V2000
   43.0731   27.6179  318.6950 N   0  0  0  0  0
   44.4904   25.8943  318.3860 N   0  0  0  0  0
   45.2152   23.7138  320.1699 N   0  0  0  0  0
   45.5428   22.6467  321.0186 N   0  0  0  0  0
   43.0631   26.8504  319.8045 C   0  0  0  0  0
   43.9349   25.7935  319.6096 C   0  0  0  0  0
   43.9532   27.0153  317.8562 C   0  0  0  0  0
   44.2398   27.4515  316.4717 C   0  0  0  0  0
   45.5478   27.4330  315.9389 C   0  0  0  0  0
   45.7653   27.8270  314.6147 C   0  0  0  0  0
   44.6966   28.2292  313.8114 C   0  0  0  0  0
   43.4012   28.2428  314.3296 C   0  0  0  0  0
   43.1753   27.8532  315.6510 C   0  0  0  0  0
   44.2597   24.7075  320.5485 C   0  0  0  0  0
   46.7902   22.0859  320.5151 C   0  0  0  0  0
   47.5190   21.3120  321.6100 C   0  0  0  0  0
   46.7245   20.0941  322.0705 C   0  0  0  0  0
   45.5460   20.5319  322.9320 C   0  0  0  0  0
   44.2836   20.8263  322.1151 C   0  0  0  0  0
   44.5246   21.6201  320.8283 C   0  0  0  0  0
   43.4729   28.2322  321.9804 C   0  0  0  0  0
   42.3841   28.8658  318.5034 C   0  0  0  0  0
   43.0730   29.9876  318.0179 C   0  0  0  0  0
   42.4049   31.2009  317.8325 C   0  0  0  0  0
   41.0440   31.3018  318.1331 C   0  0  0  0  0
   40.3513   30.1903  318.6204 C   0  0  0  0  0
   41.0192   28.9766  318.8053 C   0  0  0  0  0
   44.9822   28.7189  312.1559 Cl  0  0  0  0  0
   46.9485   26.9811  316.9007 Cl  0  0  0  0  0
   40.2073   32.8211  317.9007 Cl  0  0  0  0  0
   43.7056   24.6474  321.6787 O   0  0  0  0  0
   42.1331   27.2138  321.3010 S   0  0  0  0  0
  1  5  1  0  0  0
  1 22  1  0  0  0
  3  4  1  0  0  0
  5 32  1  0  0  0
  6  2  1  0  0  0
  6 14  1  0  0  0
  7  8  1  0  0  0
  7  1  1  0  0  0
  9 10  1  0  0  0
  9 29  1  0  0  0
 11 12  1  0  0  0
 11 28  1  0  0  0
 13  8  1  0  0  0
 14  3  1  0  0  0
 15  4  1  0  0  0
 15 16  1  0  0  0
 16 17  1  0  0  0
 17 18  1  0  0  0
 18 19  1  0  0  0
 19 20  1  0  0  0
 20  4  1  0  0  0
 21 32  1  0  0  0
 23 24  1  0  0  0
 25 26  1  0  0  0
 25 30  1  0  0  0
 27 22  1  0  0  0
  5  6  2  0  0  0
  7  2  2  0  0  0
  8  9  2  0  0  0
 10 11  2  0  0  0
 12 13  2  0  0  0
 14 31  2  0  0  0
 22 23  2  0  0  0
 24 25  2  0  0  0
 26 27  2  0  0  0
M  END
> <rmsd>
0.257016599

$$$$
CHEMBL3913457_5TGZ


 38 42  0  0  0  0  0  0  0  0999 V2000
   45.5478   21.5108  321.0147 C   0  0  0  0  0
   45.5085   23.2545  319.1774 C   0  0  0  0  0
   45.0483   24.5646  318.6818 C   0  0  0  0  0
   44.3802   25.5379  319.3995 C   0  0  0  0  0
   43.8603   25.5383  320.8022 C   0  0  0  0  0
   43.7401   26.9881  321.2888 C   0  0  0  0  0
   42.9182   27.8718  320.3261 C   0  0  0  0  0
   43.3149   27.7199  318.8720 C   0  0  0  0  0
   42.8651   28.5532  317.9271 C   0  0  0  0  0
   42.0378   29.7575  318.1233 C   0  0  0  0  0
   41.6841   30.3556  319.3339 C   0  0  0  0  0
   40.9140   31.5149  319.1681 C   0  0  0  0  0
   40.6814   31.8159  317.8311 C   0  0  0  0  0
   44.1248   26.5379  318.5037 C   0  0  0  0  0
   44.6326   26.9412  316.0870 C   0  0  0  0  0
   45.3294   28.1568  316.0220 C   0  0  0  0  0
   45.3210   28.9111  314.8466 C   0  0  0  0  0
   44.6160   28.4596  313.7248 C   0  0  0  0  0
   43.9447   27.2288  313.7802 C   0  0  0  0  0
   43.9410   26.4740  314.9559 C   0  0  0  0  0
   44.6813   29.2275  312.4357 C   0  0  0  0  0
   44.5492   20.4212  320.7118 C   0  0  0  0  0
   43.3548   20.6814  320.0086 C   0  0  0  0  0
   42.4715   19.6319  319.7457 C   0  0  0  0  0
   42.7806   18.3352  320.1812 C   0  0  0  0  0
   43.9798   18.1051  320.8617 C   0  0  0  0  0
   45.7708   21.6287  322.5139 C   0  0  0  0  0
   45.1292   22.8066  320.4830 N   0  0  0  0  0
   44.6426   26.1840  317.3030 N   0  0  0  0  0
   45.2096   24.9898  317.4071 N   0  0  0  0  0
   44.8288   19.1409  321.1111 N   0  0  0  0  0
   46.2205   22.5235  318.4375 O   0  0  0  0  0
   41.4204   30.6673  316.8570 S   0  0  0  0  0
   39.7749   33.1928  317.2466 Cl  0  0  0  0  0
   43.0414   24.9661  314.9955 Cl  0  0  0  0  0
   44.8520   30.5813  312.6781 F   0  0  0  0  0
   43.5168   29.0515  311.7081 F   0  0  0  0  0
   45.7536   28.7675  311.6924 F   0  0  0  0  0
  1 28  1  0  0  0
  1 22  1  0  0  0
  1 27  1  0  0  0
  2  3  1  0  0  0
  3  4  1  0  0  0
  5  4  1  0  0  0
  5  6  1  0  0  0
  6  7  1  0  0  0
  7  8  1  0  0  0
  8 14  1  0  0  0
  9 10  1  0  0  0
 10 33  1  0  0  0
 11 12  1  0  0  0
 13 33  1  0  0  0
 13 34  1  0  0  0
 14 29  1  0  0  0
 16 17  1  0  0  0
 18 19  1  0  0  0
 20 35  1  0  0  0
 20 15  1  0  0  0
 21 18  1  0  0  0
 21 36  1  0  0  0
 21 37  1  0  0  0
 21 38  1  0  0  0
 22 31  1  0  0  0
 23 24  1  0  0  0
 25 26  1  0  0  0
 28  2  1  0  0  0
 29 30  1  0  0  0
 29 15  1  0  0  0
  2 32  2  0  0  0
  3 30  2  0  0  0
  8  9  2  0  0  0
 10 11  2  0  0  0
 12 13  2  0  0  0
 14  4  2  0  0  0
 15 16  2  0  0  0
 17 18  2  0  0  0
 19 20  2  0  0  0
 22 23  2  0  0  0
 24 25  2  0  0  0
 26 31  2  0  0  0
M  END
> <rmsd>
0.815315723

$$$$
CHEMBL428693_5TGZ


 30 33  0  0  0  0  0  0  0  0999 V2000
   42.7644   27.4629  321.3998 C   0  0  0  0  0
   43.3510   27.0816  320.0811 C   0  0  0  0  0
   44.0407   25.9201  319.7722 C   0  0  0  0  0
   44.3978   24.8222  320.6841 C   0  0  0  0  0
   45.5330   22.5314  320.9006 C   0  0  0  0  0
   45.2838   22.3877  322.2721 C   0  0  0  0  0
   45.7220   21.2397  322.9355 C   0  0  0  0  0
   46.6398   20.3851  320.9210 C   0  0  0  0  0
   46.2171   21.5189  320.2233 C   0  0  0  0  0
   44.1215   27.4057  316.5609 C   0  0  0  0  0
   44.6946   28.6536  316.2721 C   0  0  0  0  0
   44.9686   29.0203  314.9529 C   0  0  0  0  0
   44.6774   28.1397  313.9097 C   0  0  0  0  0
   44.1128   26.8924  314.1854 C   0  0  0  0  0
   43.8377   26.5170  315.5041 C   0  0  0  0  0
   43.2568   27.7728  318.8833 C   0  0  0  0  0
   42.5327   29.0467  318.6635 C   0  0  0  0  0
   41.8428   29.2764  317.4640 C   0  0  0  0  0
   41.1487   30.4725  317.2627 C   0  0  0  0  0
   41.1342   31.4475  318.2631 C   0  0  0  0  0
   41.8100   31.2248  319.4653 C   0  0  0  0  0
   42.5043   30.0282  319.6650 C   0  0  0  0  0
   44.0820   24.8847  321.9026 O   0  0  0  0  0
   45.1070   23.6875  320.1667 N   0  0  0  0  0
   46.3858   20.2694  322.2520 N   0  0  0  0  0
   44.3530   25.9223  318.4618 N   0  0  0  0  0
   43.8752   27.0365  317.9268 N   0  0  0  0  0
   45.0183   28.5991  312.2560 Cl  0  0  0  0  0
   43.0928   24.9519  315.7874 Cl  0  0  0  0  0
   40.2658   32.9459  318.0118 Cl  0  0  0  0  0
  1  2  1  0  0  0
  2  3  1  0  0  0
  3  4  1  0  0  0
  4 24  1  0  0  0
  6  7  1  0  0  0
  8 25  1  0  0  0
  9  5  1  0  0  0
 11 12  1  0  0  0
 13 28  1  0  0  0
 13 14  1  0  0  0
 15 29  1  0  0  0
 15 10  1  0  0  0
 16 17  1  0  0  0
 18 19  1  0  0  0
 20 30  1  0  0  0
 20 21  1  0  0  0
 22 17  1  0  0  0
 24  5  1  0  0  0
 27 26  1  0  0  0
 27 10  1  0  0  0
 27 16  1  0  0  0
  3 26  2  0  0  0
  4 23  2  0  0  0
  5  6  2  0  0  0
  7 25  2  0  0  0
  8  9  2  0  0  0
 10 11  2  0  0  0
 12 13  2  0  0  0
 14 15  2  0  0  0
 16  2  2  0  0  0
 17 18  2  0  0  0
 19 20  2  0  0  0
 21 22  2  0  0  0
M  END
> <rmsd>
0.248973608

$$$$
CHEMBL574480_5TGZ


 30 33  0  0  0  0  0  0  0  0999 V2000
   42.7519   27.8310  321.4785 C   0  0  0  0  0
   43.4184   27.4298  320.2056 C   0  0  0  0  0
   44.2394   26.3353  319.9845 C   0  0  0  0  0
   44.6970   25.3492  320.9753 C   0  0  0  0  0
   46.0377   23.2591  321.4795 C   0  0  0  0  0
   47.1749   23.8527  322.2971 C   0  0  0  0  0
   46.5230   22.0276  320.7036 C   0  0  0  0  0
   47.0142   20.9131  321.6390 C   0  0  0  0  0
   45.8546   20.2676  322.3975 C   0  0  0  0  0
   44.8277   19.7134  321.4160 C   0  0  0  0  0
   44.2973   20.8327  320.5271 C   0  0  0  0  0
   45.4460   21.4809  319.7549 C   0  0  0  0  0
   44.2013   27.5781  316.6665 C   0  0  0  0  0
   44.4410   26.5279  315.7705 C   0  0  0  0  0
   44.6948   26.7924  314.4225 C   0  0  0  0  0
   44.7233   28.1096  313.9560 C   0  0  0  0  0
   44.5040   29.1702  314.8510 C   0  0  0  0  0
   44.2531   28.8991  316.1987 C   0  0  0  0  0
   43.2715   28.0113  318.9607 C   0  0  0  0  0
   42.1497   30.1647  319.4269 C   0  0  0  0  0
   41.1913   30.9596  318.8294 C   0  0  0  0  0
   40.8270   30.3273  317.6515 C   0  0  0  0  0
   41.5766   29.1702  317.5746 C   0  0  0  0  0
   44.3524   25.4519  322.1837 O   0  0  0  0  0
   45.5336   24.2681  320.5565 N   0  0  0  0  0
   44.5695   26.2789  318.6778 N   0  0  0  0  0
   43.9850   27.2951  318.0584 N   0  0  0  0  0
   42.3811   29.0943  318.6483 N   0  0  0  0  0
   45.0435   28.3950  312.2534 Cl  0  0  0  0  0
   44.5394   30.8436  314.3216 Cl  0  0  0  0  0
  1  2  1  0  0  0
  2  3  1  0  0  0
  3  4  1  0  0  0
  4 25  1  0  0  0
  5 25  1  0  0  0
  5  6  1  0  0  0
  5  7  1  0  0  0
  7  8  1  0  0  0
  8  9  1  0  0  0
  9 10  1  0  0  0
 10 11  1  0  0  0
 11 12  1  0  0  0
 12  7  1  0  0  0
 14 15  1  0  0  0
 16 29  1  0  0  0
 16 17  1  0  0  0
 17 30  1  0  0  0
 18 13  1  0  0  0
 19 28  1  0  0  0
 21 22  1  0  0  0
 23 28  1  0  0  0
 27 26  1  0  0  0
 27 13  1  0  0  0
 27 19  1  0  0  0
 28 20  1  0  0  0
  3 26  2  0  0  0
  4 24  2  0  0  0
 13 14  2  0  0  0
 15 16  2  0  0  0
 17 18  2  0  0  0
 19  2  2  0  0  0
 20 21  2  0  0  0
 22 23  2  0  0  0
M  END
> <rmsd>
0.507297873

$$$$
CHEMBL36250_5TGZ


 29 32  0  0  0  0  0  0  0  0999 V2000
   42.7784   27.5716  321.4276 C   0  0  0  0  0
   43.3959   27.1961  320.1216 C   0  0  0  0  0
   44.1211   26.0529  319.8299 C   0  0  0  0  0
   44.5020   24.9759  320.7566 C   0  0  0  0  0
   46.6926   22.0792  320.4325 C   0  0  0  0  0
   47.2313   20.9440  321.3127 C   0  0  0  0  0
   46.2293   20.5171  322.3886 C   0  0  0  0  0
   44.8009   20.5434  321.8480 C   0  0  0  0  0
   44.4520   21.8968  321.2043 C   0  0  0  0  0
   44.1677   27.4841  316.5910 C   0  0  0  0  0
   44.3042   26.4656  315.6363 C   0  0  0  0  0
   44.5696   26.7785  314.3000 C   0  0  0  0  0
   44.7119   28.1125  313.9098 C   0  0  0  0  0
   44.5987   29.1332  314.8569 C   0  0  0  0  0
   44.3339   28.8199  316.1927 C   0  0  0  0  0
   43.2848   27.8673  318.9155 C   0  0  0  0  0
   42.4790   29.0844  318.6816 C   0  0  0  0  0
   41.6206   29.1666  317.5757 C   0  0  0  0  0
   40.8411   30.3081  317.3697 C   0  0  0  0  0
   40.9087   31.3720  318.2729 C   0  0  0  0  0
   41.7508   31.2922  319.3853 C   0  0  0  0  0
   42.5306   30.1505  319.5907 C   0  0  0  0  0
   44.1812   25.0370  321.9740 O   0  0  0  0  0
   45.2456   23.8562  320.2691 N   0  0  0  0  0
   45.6112   22.7933  321.1076 N   0  0  0  0  0
   44.4375   26.0480  318.5204 N   0  0  0  0  0
   43.9367   27.1448  317.9691 N   0  0  0  0  0
   45.0424   28.5042  312.2365 Cl  0  0  0  0  0
   39.9335   32.8020  318.0148 Cl  0  0  0  0  0
  1  2  1  0  0  0
  2  3  1  0  0  0
  3  4  1  0  0  0
  4 24  1  0  0  0
  5 25  1  0  0  0
  5  6  1  0  0  0
  6  7  1  0  0  0
  7  8  1  0  0  0
  8  9  1  0  0  0
  9 25  1  0  0  0
 11 12  1  0  0  0
 13 28  1  0  0  0
 13 14  1  0  0  0
 15 10  1  0  0  0
 16 17  1  0  0  0
 18 19  1  0  0  0
 20 29  1  0  0  0
 20 21  1  0  0  0
 22 17  1  0  0  0
 24 25  1  0  0  0
 27 26  1  0  0  0
 27 10  1  0  0  0
 27 16  1  0  0  0
  3 26  2  0  0  0
  4 23  2  0  0  0
 10 11  2  0  0  0
 12 13  2  0  0  0
 14 15  2  0  0  0
 16  2  2  0  0  0
 17 18  2  0  0  0
 19 20  2  0  0  0
 21 22  2  0  0  0
M  END
> <rmsd>
0.263296098

$$$$
CHEMBL1631301_6N4B


 30 32  0  0  0  0  0  0  0  0999 V2000
   44.1763   29.0374  315.9798 C   0  0  0  0  0
   44.3544   29.4256  314.6501 C   0  0  0  0  0
   44.6065   28.4632  313.6711 C   0  0  0  0  0
   44.6822   27.1139  314.0222 C   0  0  0  0  0
   44.5061   26.7206  315.3524 C   0  0  0  0  0
   44.2424   27.6836  316.3466 C   0  0  0  0  0
   44.3641   26.2037  319.5743 C   0  0  0  0  0
   43.5342   27.2706  319.8814 C   0  0  0  0  0
   43.3775   27.9387  318.6859 C   0  0  0  0  0
   42.5664   30.2632  319.0475 C   0  0  0  0  0
   41.5376   31.0779  318.6140 C   0  0  0  0  0
   40.7929   30.3141  317.7238 C   0  0  0  0  0
   41.4172   29.0828  317.6629 C   0  0  0  0  0
   40.9270   27.9309  316.8530 C   0  0  0  0  0
   43.6298   30.6873  320.0024 C   0  0  0  0  0
   42.8734   27.5804  321.1817 C   0  0  0  0  0
   44.8400   25.1537  320.4877 C   0  0  0  0  0
   46.1689   23.0252  320.8213 C   0  0  0  0  0
   45.0365   22.0446  321.1114 C   0  0  0  0  0
   45.4648   20.8914  322.0176 C   0  0  0  0  0
   45.9323   21.4106  323.3657 C   0  0  0  0  0
   44.2721   19.9855  322.2383 C   0  0  0  0  0
   46.5740   20.0805  321.3714 C   0  0  0  0  0
   44.0785   27.2960  317.7240 N   0  0  0  0  0
   44.6816   26.2450  318.2629 N   0  0  0  0  0
   42.4987   29.0530  318.4636 N   0  0  0  0  0
   45.6838   24.1134  319.9864 N   0  0  0  0  0
   44.5109   25.1710  321.7047 O   0  0  0  0  0
   44.5701   25.4014  315.6594 F   0  0  0  0  0
   44.7783   28.8382  312.3810 F   0  0  0  0  0
  2  3  1  0  0  0
  3 30  1  0  0  0
  4  5  1  0  0  0
  5 29  1  0  0  0
  6 24  1  0  0  0
  6  1  1  0  0  0
  7  8  1  0  0  0
  7 17  1  0  0  0
  9 26  1  0  0  0
  9 24  1  0  0  0
 11 12  1  0  0  0
 13 26  1  0  0  0
 14 13  1  0  0  0
 15 10  1  0  0  0
 16  8  1  0  0  0
 17 27  1  0  0  0
 18 27  1  0  0  0
 18 19  1  0  0  0
 19 20  1  0  0  0
 20 21  1  0  0  0
 20 22  1  0  0  0
 20 23  1  0  0  0
 24 25  1  0  0  0
 26 10  1  0  0  0
  1  2  2  0  0  0
  3  4  2  0  0  0
  5  6  2  0  0  0
  7 25  2  0  0  0
  8  9  2  0  0  0
 10 11  2  0  0  0
 12 13  2  0  0  0
 17 28  2  0  0  0
M  END
> <rmsd>
0.561392128

$$$$
CHEMBL573546_5TGZ


 30 33  0  0  0  0  0  0  0  0999 V2000
   43.1865   26.5942  320.9643 C   0  0  0  0  0
   43.7982   26.4984  319.6071 C   0  0  0  0  0
   44.7594   25.6019  319.1653 C   0  0  0  0  0
   45.3547   24.4847  319.9163 C   0  0  0  0  0
   45.4895   23.1765  322.1305 C   0  0  0  0  0
   45.4865   21.7994  321.4780 C   0  0  0  0  0
   46.8367   23.6145  322.7277 C   0  0  0  0  0
   47.1673   22.8906  324.0377 C   0  0  0  0  0
   47.7498   21.5013  323.7852 C   0  0  0  0  0
   48.9823   21.6014  322.8940 C   0  0  0  0  0
   48.6036   22.2172  321.5522 C   0  0  0  0  0
   48.0244   23.6170  321.7532 C   0  0  0  0  0
   44.4789   27.5053  316.1888 C   0  0  0  0  0
   45.6762   27.4223  315.4656 C   0  0  0  0  0
   45.7459   27.9028  314.1557 C   0  0  0  0  0
   44.6175   28.4618  313.5492 C   0  0  0  0  0
   43.4073   28.5309  314.2594 C   0  0  0  0  0
   43.3435   28.0463  315.5686 C   0  0  0  0  0
   43.6060   27.3558  318.5403 C   0  0  0  0  0
   41.6236   28.6873  319.1807 C   0  0  0  0  0
   41.1911   29.9919  319.0459 C   0  0  0  0  0
   42.1708   30.6649  318.3340 C   0  0  0  0  0
   43.1646   29.7459  318.0612 C   0  0  0  0  0
   46.2380   23.7739  319.3658 O   0  0  0  0  0
   44.9229   24.1987  321.2531 N   0  0  0  0  0
   45.1089   25.9088  317.8987 N   0  0  0  0  0
   44.4089   26.9690  317.5199 N   0  0  0  0  0
   42.8116   28.5523  318.5678 N   0  0  0  0  0
   44.7519   29.0557  311.9024 Cl  0  0  0  0  0
   41.9570   29.2126  313.5427 Cl  0  0  0  0  0
  1  2  1  0  0  0
  2  3  1  0  0  0
  3  4  1  0  0  0
  4 25  1  0  0  0
  5 25  1  0  0  0
  5  6  1  0  0  0
  5  7  1  0  0  0
  7  8  1  0  0  0
  8  9  1  0  0  0
  9 10  1  0  0  0
 10 11  1  0  0  0
 11 12  1  0  0  0
 12  7  1  0  0  0
 14 15  1  0  0  0
 16 29  1  0  0  0
 16 17  1  0  0  0
 17 30  1  0  0  0
 18 13  1  0  0  0
 19 28  1  0  0  0
 21 22  1  0  0  0
 23 28  1  0  0  0
 27 26  1  0  0  0
 27 13  1  0  0  0
 27 19  1  0  0  0
 28 20  1  0  0  0
  3 26  2  0  0  0
  4 24  2  0  0  0
 13 14  2  0  0  0
 15 16  2  0  0  0
 17 18  2  0  0  0
 19  2  2  0  0  0
 20 21  2  0  0  0
 22 23  2  0  0  0
M  END
> <rmsd>
0.718726456

$$$$
CHEMBL2296786_5TGZ


 31 34  0  0  0  0  0  0  0  0999 V2000
   40.3771   33.7449  319.1851 C   0  0  0  0  0
   41.2029   31.5668  318.3535 C   0  0  0  0  0
   41.7460   31.2199  319.6004 C   0  0  0  0  0
   42.4021   29.9976  319.7671 C   0  0  0  0  0
   42.5324   29.1074  318.6918 C   0  0  0  0  0
   43.2063   27.8027  318.8861 C   0  0  0  0  0
   43.2679   27.0990  320.0738 C   0  0  0  0  0
   43.9031   25.9135  319.7636 C   0  0  0  0  0
   44.1989   24.8083  320.6832 C   0  0  0  0  0
   46.4355   22.9109  321.7173 C   0  0  0  0  0
   46.8219   21.8275  322.7319 C   0  0  0  0  0
   46.1479   20.4855  322.4333 C   0  0  0  0  0
   46.0735   20.2325  320.9287 C   0  0  0  0  0
   45.4255   21.4086  320.1767 C   0  0  0  0  0
   44.0681   27.4128  316.5648 C   0  0  0  0  0
   44.7513   28.6070  316.2902 C   0  0  0  0  0
   45.0508   28.9654  314.9741 C   0  0  0  0  0
   44.6756   28.1292  313.9210 C   0  0  0  0  0
   44.0025   26.9339  314.1835 C   0  0  0  0  0
   43.7012   26.5672  315.4989 C   0  0  0  0  0
   41.9768   29.4537  317.4521 C   0  0  0  0  0
   41.3208   30.6758  317.2831 C   0  0  0  0  0
   40.5430   32.7823  318.1531 O   0  0  0  0  0
   43.8691   24.8877  321.8973 O   0  0  0  0  0
   42.7579   27.4648  321.2764 F   0  0  0  0  0
   44.8600   23.6386  320.1948 N   0  0  0  0  0
   45.1838   22.5681  321.0408 N   0  0  0  0  0
   44.2222   25.9076  318.4549 N   0  0  0  0  0
   43.7972   27.0470  317.9261 N   0  0  0  0  0
   45.0485   28.5786  312.2714 Cl  0  0  0  0  0
   42.8247   25.0697  315.7701 Cl  0  0  0  0  0
  1 23  1  0  0  0
  2 23  1  0  0  0
  3  4  1  0  0  0
  5  6  1  0  0  0
  5 21  1  0  0  0
  7 25  1  0  0  0
  7  8  1  0  0  0
  8  9  1  0  0  0
  9 26  1  0  0  0
 10 27  1  0  0  0
 10 11  1  0  0  0
 11 12  1  0  0  0
 12 13  1  0  0  0
 13 14  1  0  0  0
 14 27  1  0  0  0
 16 17  1  0  0  0
 18 30  1  0  0  0
 18 19  1  0  0  0
 20 31  1  0  0  0
 20 15  1  0  0  0
 22  2  1  0  0  0
 26 27  1  0  0  0
 29 28  1  0  0  0
 29 15  1  0  0  0
 29  6  1  0  0  0
  2  3  2  0  0  0
  4  5  2  0  0  0
  6  7  2  0  0  0
  8 28  2  0  0  0
  9 24  2  0  0  0
 15 16  2  0  0  0
 17 18  2  0  0  0
 19 20  2  0  0  0
 21 22  2  0  0  0
M  END
> <rmsd>
0.305650383

$$$$
CHEMBL361557_5TGZ


 31 34  0  0  0  0  0  0  0  0999 V2000
   42.8868   27.2090  321.2450 C   0  0  0  0  0
   44.1914   25.7940  319.6149 C   0  0  0  0  0
   44.5326   24.6868  320.5262 C   0  0  0  0  0
   45.6395   22.3982  320.8166 C   0  0  0  0  0
   44.4142   21.6662  321.3658 C   0  0  0  0  0
   44.8153   20.3938  322.1246 C   0  0  0  0  0
   46.1939   20.4822  322.7947 C   0  0  0  0  0
   46.5400   21.9197  323.1702 C   0  0  0  0  0
   46.6239   22.8092  321.9241 C   0  0  0  0  0
   44.0404   26.9382  317.8129 C   0  0  0  0  0
   44.2285   27.3778  316.4101 C   0  0  0  0  0
   44.3813   28.7473  316.1423 C   0  0  0  0  0
   44.5854   29.2049  314.8397 C   0  0  0  0  0
   44.6429   28.2955  313.7842 C   0  0  0  0  0
   44.4923   26.9303  314.0312 C   0  0  0  0  0
   44.2891   26.4618  315.3335 C   0  0  0  0  0
   43.4075   27.6351  318.8325 C   0  0  0  0  0
   42.6536   28.8977  318.7089 C   0  0  0  0  0
   41.5443   28.9417  317.8538 C   0  0  0  0  0
   40.8061   30.1187  317.7122 C   0  0  0  0  0
   41.1737   31.2623  318.4238 C   0  0  0  0  0
   42.2838   31.2317  319.2708 C   0  0  0  0  0
   43.0270   30.0565  319.4198 C   0  0  0  0  0
   43.5013   26.9047  319.9594 N   0  0  0  0  0
   45.2457   23.5531  320.0163 N   0  0  0  0  0
   44.5412   25.7873  318.3104 N   0  0  0  0  0
   44.2046   24.7345  321.7423 O   0  0  0  0  0
   44.8975   28.8664  312.1497 Cl  0  0  0  0  0
   44.0581   24.7314  315.5438 Cl  0  0  0  0  0
   40.2499   32.7378  318.2458 Cl  0  0  0  0  0
   44.4492   30.0963  320.4521 Cl  0  0  0  0  0
  1 24  1  0  0  0
  2  3  1  0  0  0
  3 25  1  0  0  0
  4 25  1  0  0  0
  4  5  1  0  0  0
  5  6  1  0  0  0
  6  7  1  0  0  0
  7  8  1  0  0  0
  8  9  1  0  0  0
  9  4  1  0  0  0
 10 26  1  0  0  0
 10 11  1  0  0  0
 12 13  1  0  0  0
 14 28  1  0  0  0
 14 15  1  0  0  0
 16 29  1  0  0  0
 16 11  1  0  0  0
 17 18  1  0  0  0
 17 24  1  0  0  0
 19 20  1  0  0  0
 21 30  1  0  0  0
 21 22  1  0  0  0
 23 31  1  0  0  0
 23 18  1  0  0  0
 24  2  1  0  0  0
  2 26  2  0  0  0
  3 27  2  0  0  0
 10 17  2  0  0  0
 11 12  2  0  0  0
 13 14  2  0  0  0
 15 16  2  0  0  0
 18 19  2  0  0  0
 20 21  2  0  0  0
 22 23  2  0  0  0
M  END
> <rmsd>
0.364365995

$$$$
CHEMBL1629731_5TGZ


 27 29  0  0  0  0  0  0  0  0999 V2000
   45.6325   20.7592  322.1810 C   0  0  0  0  0
   45.1537   21.9446  321.3524 C   0  0  0  0  0
   46.2873   22.8939  320.9472 C   0  0  0  0  0
   47.2981   22.1543  320.0888 C   0  0  0  0  0
   47.0015   23.4453  322.1737 C   0  0  0  0  0
   44.7651   24.9368  320.6228 C   0  0  0  0  0
   44.3042   26.0027  319.7204 C   0  0  0  0  0
   44.3315   27.5866  316.5534 C   0  0  0  0  0
   43.2081   27.7195  315.7236 C   0  0  0  0  0
   43.3572   28.0574  314.3768 C   0  0  0  0  0
   44.6324   28.2590  313.8456 C   0  0  0  0  0
   45.7584   28.1216  314.6604 C   0  0  0  0  0
   45.6172   27.7812  316.0093 C   0  0  0  0  0
   43.3144   27.7464  318.8355 C   0  0  0  0  0
   42.8850   29.9773  317.8380 C   0  0  0  0  0
   41.9415   30.9777  317.9617 C   0  0  0  0  0
   41.0192   30.5399  318.8975 C   0  0  0  0  0
   41.4352   29.2890  319.3087 C   0  0  0  0  0
   43.3807   26.9992  319.9981 C   0  0  0  0  0
   42.6769   27.2557  321.2884 C   0  0  0  0  0
   45.7438   23.9972  320.1590 N   0  0  0  0  0
   44.7533   26.1462  318.4566 N   0  0  0  0  0
   44.1583   27.2047  317.9259 N   0  0  0  0  0
   42.5607   28.9583  318.6525 N   0  0  0  0  0
   44.3036   24.8501  321.7929 O   0  0  0  0  0
   44.8202   28.6844  312.1587 Cl  0  0  0  0  0
   47.0654   27.6551  316.9948 Cl  0  0  0  0  0
  1  2  1  0  0  0
  2  3  1  0  0  0
  3  4  1  0  0  0
  3  5  1  0  0  0
  3 21  1  0  0  0
  6  7  1  0  0  0
  9 10  1  0  0  0
 11 26  1  0  0  0
 11 12  1  0  0  0
 13 27  1  0  0  0
 13  8  1  0  0  0
 14 24  1  0  0  0
 16 17  1  0  0  0
 18 24  1  0  0  0
 19  7  1  0  0  0
 20 19  1  0  0  0
 21  6  1  0  0  0
 23 22  1  0  0  0
 23  8  1  0  0  0
 23 14  1  0  0  0
 24 15  1  0  0  0
  6 25  2  0  0  0
  7 22  2  0  0  0
  8  9  2  0  0  0
 10 11  2  0  0  0
 12 13  2  0  0  0
 14 19  2  0  0  0
 15 16  2  0  0  0
 17 18  2  0  0  0
M  END
> <rmsd>
0.447441697

$$$$
CHEMBL572860_5TGZ


 31 34  0  0  0  0  0  0  0  0999 V2000
   44.0693   27.2337  317.9047 N   0  0  0  0  0
   44.5454   26.1209  318.4445 N   0  0  0  0  0
   42.5807   29.0897  318.5909 N   0  0  0  0  0
   45.2658   23.8790  320.1672 N   0  0  0  0  0
   44.1736   26.0936  319.7420 C   0  0  0  0  0
   43.4298   27.2273  320.0331 C   0  0  0  0  0
   43.3823   27.9234  318.8431 C   0  0  0  0  0
   41.5844   29.2120  317.6932 C   0  0  0  0  0
   41.0189   30.4713  317.7521 C   0  0  0  0  0
   41.7116   31.1571  318.7414 C   0  0  0  0  0
   42.6506   30.2707  319.2333 C   0  0  0  0  0
   43.6423   30.6035  320.2958 C   0  0  0  0  0
   41.1007   28.1190  316.8019 C   0  0  0  0  0
   42.7215   27.5605  321.3026 C   0  0  0  0  0
   44.5064   24.9886  320.6538 C   0  0  0  0  0
   45.6091   22.7358  320.9992 C   0  0  0  0  0
   44.3652   21.8718  321.2497 C   0  0  0  0  0
   44.4947   20.9435  322.4707 C   0  0  0  0  0
   45.9187   20.8180  323.0254 C   0  0  0  0  0
   46.8828   20.0804  322.0902 C   0  0  0  0  0
   46.7426   20.4485  320.6103 C   0  0  0  0  0
   46.7580   21.9572  320.3404 C   0  0  0  0  0
   44.2773   27.5843  316.5280 C   0  0  0  0  0
   44.6394   28.8915  316.1480 C   0  0  0  0  0
   44.8373   29.1983  314.7986 C   0  0  0  0  0
   44.6847   28.2107  313.8228 C   0  0  0  0  0
   44.3511   26.9069  314.1954 C   0  0  0  0  0
   44.1528   26.5949  315.5425 C   0  0  0  0  0
   44.1307   25.0202  321.8569 O   0  0  0  0  0
   44.8758   28.5139  312.5166 F   0  0  0  0  0
   44.8522   29.8549  317.0771 F   0  0  0  0  0
  1  2  1  0  0  0
  1 23  1  0  0  0
  3  8  1  0  0  0
  5  6  1  0  0  0
  5 15  1  0  0  0
  7  3  1  0  0  0
  7  1  1  0  0  0
  9 10  1  0  0  0
 11  3  1  0  0  0
 12 11  1  0  0  0
 13  8  1  0  0  0
 14  6  1  0  0  0
 15  4  1  0  0  0
 16  4  1  0  0  0
 16 17  1  0  0  0
 17 18  1  0  0  0
 18 19  1  0  0  0
 19 20  1  0  0  0
 20 21  1  0  0  0
 21 22  1  0  0  0
 22 16  1  0  0  0
 24 25  1  0  0  0
 24 31  1  0  0  0
 26 27  1  0  0  0
 26 30  1  0  0  0
 28 23  1  0  0  0
  5  2  2  0  0  0
  6  7  2  0  0  0
  8  9  2  0  0  0
 10 11  2  0  0  0
 15 29  2  0  0  0
 23 24  2  0  0  0
 25 26  2  0  0  0
 27 28  2  0  0  0
M  END
> <rmsd>
0.297704875

$$$$
CHEMBL575395_5TGZ


 29 32  0  0  0  0  0  0  0  0999 V2000
   43.9679   27.1161  318.0508 N   0  0  0  0  0
   44.4902   26.0461  318.6353 N   0  0  0  0  0
   42.5381   29.0248  318.7220 N   0  0  0  0  0
   45.3236   23.9156  320.4470 N   0  0  0  0  0
   44.0376   25.9968  319.9062 C   0  0  0  0  0
   43.1953   27.0729  320.1373 C   0  0  0  0  0
   43.1776   27.7583  318.9419 C   0  0  0  0  0
   43.1416   30.2069  318.4994 C   0  0  0  0  0
   42.2095   31.2193  318.3728 C   0  0  0  0  0
   40.9668   30.6181  318.5322 C   0  0  0  0  0
   41.2174   29.2768  318.7518 C   0  0  0  0  0
   40.1614   28.2457  318.9617 C   0  0  0  0  0
   44.6174   30.4076  318.4333 C   0  0  0  0  0
   42.5253   27.4646  321.4105 C   0  0  0  0  0
   44.4240   24.9471  320.8610 C   0  0  0  0  0
   45.7303   22.8278  321.3241 C   0  0  0  0  0
   44.5987   21.8271  321.4734 C   0  0  0  0  0
   45.2443   20.4640  321.3969 C   0  0  0  0  0
   46.4426   20.6485  320.4964 C   0  0  0  0  0
   46.8972   22.0795  320.7036 C   0  0  0  0  0
   44.2065   27.4488  316.6712 C   0  0  0  0  0
   43.3447   28.3062  315.9718 C   0  0  0  0  0
   43.5723   28.6111  314.6276 C   0  0  0  0  0
   44.6718   28.0450  313.9617 C   0  0  0  0  0
   45.5264   27.1787  314.6488 C   0  0  0  0  0
   45.2940   26.8800  315.9935 C   0  0  0  0  0
   43.9681   24.9556  322.0365 O   0  0  0  0  0
   45.0033   28.3946  312.2733 Cl  0  0  0  0  0
   42.4635   29.7018  313.8136 Cl  0  0  0  0  0
  1  2  1  0  0  0
  1 21  1  0  0  0
  3  8  1  0  0  0
  5  6  1  0  0  0
  5 15  1  0  0  0
  7  3  1  0  0  0
  7  1  1  0  0  0
  9 10  1  0  0  0
 11  3  1  0  0  0
 12 11  1  0  0  0
 13  8  1  0  0  0
 14  6  1  0  0  0
 15  4  1  0  0  0
 16  4  1  0  0  0
 16 17  1  0  0  0
 17 18  1  0  0  0
 18 19  1  0  0  0
 19 20  1  0  0  0
 20 16  1  0  0  0
 22 23  1  0  0  0
 23 29  1  0  0  0
 24 25  1  0  0  0
 24 28  1  0  0  0
 26 21  1  0  0  0
  5  2  2  0  0  0
  6  7  2  0  0  0
  8  9  2  0  0  0
 10 11  2  0  0  0
 15 27  2  0  0  0
 21 22  2  0  0  0
 23 24  2  0  0  0
 25 26  2  0  0  0
M  END
> <rmsd>
0.442191958

$$$$
CHEMBL576549_5TGZ


 29 32  0  0  0  0  0  0  0  0999 V2000
   42.8110   27.4753  321.3633 C   0  0  0  0  0
   43.4023   27.1254  320.0392 C   0  0  0  0  0
   44.0813   25.9686  319.6904 C   0  0  0  0  0
   44.4347   24.8431  320.5691 C   0  0  0  0  0
   45.5310   22.5450  320.7967 C   0  0  0  0  0
   44.2995   21.7953  321.3290 C   0  0  0  0  0
   44.6034   20.4197  321.9452 C   0  0  0  0  0
   45.9562   19.8468  321.5124 C   0  0  0  0  0
   47.1453   20.4641  322.2662 C   0  0  0  0  0
   46.8596   21.8349  322.8903 C   0  0  0  0  0
   46.5655   22.9307  321.8631 C   0  0  0  0  0
   44.1356   27.5283  316.5092 C   0  0  0  0  0
   44.2302   26.5507  315.5099 C   0  0  0  0  0
   44.4895   26.9151  314.1864 C   0  0  0  0  0
   44.6681   28.2594  313.8477 C   0  0  0  0  0
   44.5953   29.2448  314.8465 C   0  0  0  0  0
   44.3381   28.8735  316.1689 C   0  0  0  0  0
   43.3050   27.8401  318.8604 C   0  0  0  0  0
   42.4599   30.0548  319.5632 C   0  0  0  0  0
   41.5943   31.0126  319.0730 C   0  0  0  0  0
   41.1357   30.5471  317.8512 C   0  0  0  0  0
   41.7384   29.3227  317.6418 C   0  0  0  0  0
   44.1301   24.8707  321.7923 O   0  0  0  0  0
   45.1297   23.7153  320.0233 N   0  0  0  0  0
   44.3795   26.0026  318.3752 N   0  0  0  0  0
   43.9112   27.1369  317.8734 N   0  0  0  0  0
   42.5466   29.0465  318.6793 N   0  0  0  0  0
   44.9891   28.6716  312.1715 Cl  0  0  0  0  0
   44.8230   30.9463  314.4791 Cl  0  0  0  0  0
  1  2  1  0  0  0
  2  3  1  0  0  0
  3  4  1  0  0  0
  4 24  1  0  0  0
  5 24  1  0  0  0
  5  6  1  0  0  0
  6  7  1  0  0  0
  7  8  1  0  0  0
  8  9  1  0  0  0
  9 10  1  0  0  0
 10 11  1  0  0  0
 11  5  1  0  0  0
 13 14  1  0  0  0
 15 28  1  0  0  0
 15 16  1  0  0  0
 16 29  1  0  0  0
 17 12  1  0  0  0
 18 27  1  0  0  0
 20 21  1  0  0  0
 22 27  1  0  0  0
 26 25  1  0  0  0
 26 12  1  0  0  0
 26 18  1  0  0  0
 27 19  1  0  0  0
  3 25  2  0  0  0
  4 23  2  0  0  0
 12 13  2  0  0  0
 14 15  2  0  0  0
 16 17  2  0  0  0
 18  2  2  0  0  0
 19 20  2  0  0  0
 21 22  2  0  0  0
M  END
> <rmsd>
0.26624161

$$$$
CHEMBL1269770_5TGZ


 64 69  0  0  0  0  0  0  0  0999 V2000
   42.7858   27.2525  321.4047 C   0  0  0  0  0
   43.4293   26.9620  320.0895 C   0  0  0  0  0
   44.2273   25.8738  319.7721 C   0  0  0  0  0
   44.6733   24.7976  320.6711 C   0  0  0  0  0
   46.0648   22.7047  320.9954 C   0  0  0  0  0
   44.9901   21.6845  321.3316 C   0  0  0  0  0
   45.5627   20.5934  322.2172 C   0  0  0  0  0
   45.7448   21.1066  323.6364 C   0  0  0  0  0
   46.3089   20.0165  324.5301 C   0  0  0  0  0
   45.2367   18.9950  324.8657 C   0  0  0  0  0
   45.7689   17.9742  325.8782 C   0  0  0  0  0
   46.1684   19.5701  327.6254 C   0  0  0  0  0
   44.0674   18.5006  327.4787 C   0  0  0  0  0
   43.4804   17.2697  328.1461 C   0  0  0  0  0
   41.9741   17.2342  327.9455 C   0  0  0  0  0
   41.6249   16.7643  326.5411 C   0  0  0  0  0
   41.6721   15.2463  326.4659 C   0  0  0  0  0
   42.6798   14.7847  325.4203 C   0  0  0  0  0
   44.1060   14.9386  325.9272 C   0  0  0  0  0
   45.4612   13.1246  327.0469 C   0  0  0  0  0
   45.6376   12.1761  328.1590 C   0  0  0  0  0
   47.5604    9.7345  329.8682 C   0  0  0  0  0
   47.1235    8.4686  330.2874 C   0  0  0  0  0
   48.0389    7.5005  330.7058 C   0  0  0  0  0
   49.4048    7.7873  330.7079 C   0  0  0  0  0
   49.8539    9.0406  330.2905 C   0  0  0  0  0
   48.9443   10.0156  329.8685 C   0  0  0  0  0
   45.3907   10.9766  329.9812 C   0  0  0  0  0
   44.8856   10.4246  331.2516 C   0  0  0  0  0
   45.6951   10.4327  332.3972 C   0  0  0  0  0
   45.2145    9.9114  333.6013 C   0  0  0  0  0
   43.9230    9.3785  333.6651 C   0  0  0  0  0
   43.1092    9.3732  332.5281 C   0  0  0  0  0
   43.5877    9.8991  331.3248 C   0  0  0  0  0
   44.7499   11.9123  329.1908 C   0  0  0  0  0
   43.4203   12.5425  329.4417 C   0  0  0  0  0
   44.2535   27.4244  316.5986 C   0  0  0  0  0
   43.7448   26.6250  315.5668 C   0  0  0  0  0
   43.9553   26.9775  314.2319 C   0  0  0  0  0
   44.6848   28.1268  313.9201 C   0  0  0  0  0
   45.2160   28.9170  314.9422 C   0  0  0  0  0
   45.0093   28.5705  316.2809 C   0  0  0  0  0
   43.3151   27.6837  318.9091 C   0  0  0  0  0
   42.5339   28.9336  318.7071 C   0  0  0  0  0
   42.0716   29.2963  317.4327 C   0  0  0  0  0
   41.3730   30.4911  317.2411 C   0  0  0  0  0
   41.1231   31.3344  318.3264 C   0  0  0  0  0
   41.5650   30.9788  319.6026 C   0  0  0  0  0
   42.2650   29.7844  319.7910 C   0  0  0  0  0
   44.3265   24.7921  321.8828 O   0  0  0  0  0
   46.3095   13.1534  326.1151 O   0  0  0  0  0
   45.5150   23.7607  320.1595 N   0  0  0  0  0
   45.5006   18.3208  327.2825 N   0  0  0  0  0
   44.3466   14.0175  327.0278 N   0  0  0  0  0
   46.7454   11.4264  328.3226 N   0  0  0  0  0
   46.5986   10.7097  329.4294 N   0  0  0  0  0
   44.5793   25.9418  318.4741 N   0  0  0  0  0
   44.0344   27.0330  317.9590 N   0  0  0  0  0
   50.5538    6.5720  331.2259 Cl  0  0  0  0  0
   49.5762   11.5942  329.4218 Cl  0  0  0  0  0
   43.3254    8.7139  335.1697 Cl  0  0  0  0  0
   44.9443   28.5711  312.2482 Cl  0  0  0  0  0
   45.7377   29.5686  317.5289 Cl  0  0  0  0  0
   40.2685   32.8411  318.0866 Cl  0  0  0  0  0
  1  2  1  0  0  0
  2  3  1  0  0  0
  3  4  1  0  0  0
  4 52  1  0  0  0
  5 52  1  0  0  0
  5  6  1  0  0  0
  6  7  1  0  0  0
  7  8  1  0  0  0
  8  9  1  0  0  0
  9 10  1  0  0  0
 10 11  1  0  0  0
 11 53  1  0  0  0
 12 53  1  0  0  0
 13 53  1  0  0  0
 13 14  1  0  0  0
 14 15  1  0  0  0
 15 16  1  0  0  0
 16 17  1  0  0  0
 17 18  1  0  0  0
 18 19  1  0  0  0
 19 54  1  0  0  0
 20 21  1  0  0  0
 23 24  1  0  0  0
 25 59  1  0  0  0
 25 26  1  0  0  0
 27 60  1  0  0  0
 27 22  1  0  0  0
 28 29  1  0  0  0
 30 31  1  0  0  0
 32 61  1  0  0  0
 32 33  1  0  0  0
 34 29  1  0  0  0
 35 21  1  0  0  0
 36 35  1  0  0  0
 38 39  1  0  0  0
 40 62  1  0  0  0
 40 41  1  0  0  0
 42 63  1  0  0  0
 42 37  1  0  0  0
 43 44  1  0  0  0
 45 46  1  0  0  0
 47 64  1  0  0  0
 47 48  1  0  0  0
 49 44  1  0  0  0
 54 20  1  0  0  0
 56 55  1  0  0  0
 56 22  1  0  0  0
 56 28  1  0  0  0
 58 57  1  0  0  0
 58 37  1  0  0  0
 58 43  1  0  0  0
  3 57  2  0  0  0
  4 50  2  0  0  0
 20 51  2  0  0  0
 21 55  2  0  0  0
 22 23  2  0  0  0
 24 25  2  0  0  0
 26 27  2  0  0  0
 28 35  2  0  0  0
 29 30  2  0  0  0
 31 32  2  0  0  0
 33 34  2  0  0  0
 37 38  2  0  0  0
 39 40  2  0  0  0
 41 42  2  0  0  0
 43  2  2  0  0  0
 44 45  2  0  0  0
 46 47  2  0  0  0
 48 49  2  0  0  0
M  END
> <rmsd>
0.382496417

$$$$
CHEMBL4068853_5TGZ


 39 42  0  0  0  0  0  0  0  0999 V2000
   42.6458   27.4480  321.2974 C   0  0  0  0  0
   43.3174   27.0828  320.0131 C   0  0  0  0  0
   43.9834   25.9006  319.7461 C   0  0  0  0  0
   43.9585   27.0768  317.9664 C   0  0  0  0  0
   42.6154   29.0806  318.6839 C   0  0  0  0  0
   42.6022   30.0514  319.6961 C   0  0  0  0  0
   41.9536   31.2733  319.4991 C   0  0  0  0  0
   41.3085   31.5436  318.2892 C   0  0  0  0  0
   41.3148   30.5744  317.2753 C   0  0  0  0  0
   41.9623   29.3529  317.4726 C   0  0  0  0  0
   39.1845   34.8656  316.8899 C   0  0  0  0  0
   38.2928   34.9208  318.1247 C   0  0  0  0  0
   37.6990   36.3072  318.3692 C   0  0  0  0  0
   36.8438   36.2507  319.6173 C   0  0  0  0  0
   38.7972   37.3341  318.5827 C   0  0  0  0  0
   36.8242   36.7317  317.2030 C   0  0  0  0  0
   44.2217   27.4810  316.5736 C   0  0  0  0  0
   44.9435   28.6515  316.2552 C   0  0  0  0  0
   45.1587   28.9907  314.9156 C   0  0  0  0  0
   44.6699   28.1746  313.8932 C   0  0  0  0  0
   43.9773   27.0033  314.2053 C   0  0  0  0  0
   43.7579   26.6569  315.5405 C   0  0  0  0  0
   44.2284   24.7822  320.6709 C   0  0  0  0  0
   46.3990   22.8770  321.8199 C   0  0  0  0  0
   46.7335   21.7726  322.8308 C   0  0  0  0  0
   46.0666   20.4403  322.4781 C   0  0  0  0  0
   46.0818   20.2022  320.9691 C   0  0  0  0  0
   45.5071   21.3974  320.1881 C   0  0  0  0  0
   44.3846   25.8938  318.4595 N   0  0  0  0  0
   43.2935   27.8238  318.8848 N   0  0  0  0  0
   44.9247   23.6231  320.2064 N   0  0  0  0  0
   45.1983   22.5394  321.0534 N   0  0  0  0  0
   40.6726   32.7773  318.1245 O   0  0  0  0  0
   40.7975   33.2132  315.5341 O   0  0  0  0  0
   38.7224   32.2615  316.4345 O   0  0  0  0  0
   43.8277   24.8391  321.8647 O   0  0  0  0  0
   39.8448   33.2263  316.6962 S   0  0  0  0  0
   44.9421   28.6110  312.2204 Cl  0  0  0  0  0
   45.6496   29.6804  317.4935 Cl  0  0  0  0  0
  1  2  1  0  0  0
  3 29  1  0  0  0
  3 23  1  0  0  0
  4 30  1  0  0  0
  4 17  1  0  0  0
  6  7  1  0  0  0
  8  9  1  0  0  0
  8 33  1  0  0  0
 10  5  1  0  0  0
 11 12  1  0  0  0
 12 13  1  0  0  0
 13 14  1  0  0  0
 13 15  1  0  0  0
 13 16  1  0  0  0
 18 19  1  0  0  0
 18 39  1  0  0  0
 20 21  1  0  0  0
 20 38  1  0  0  0
 22 17  1  0  0  0
 23 31  1  0  0  0
 24 32  1  0  0  0
 24 25  1  0  0  0
 25 26  1  0  0  0
 26 27  1  0  0  0
 27 28  1  0  0  0
 28 32  1  0  0  0
 30  5  1  0  0  0
 30  2  1  0  0  0
 31 32  1  0  0  0
 37 33  1  0  0  0
 37 11  1  0  0  0
  2  3  2  0  0  0
  4 29  2  0  0  0
  5  6  2  0  0  0
  7  8  2  0  0  0
  9 10  2  0  0  0
 17 18  2  0  0  0
 19 20  2  0  0  0
 21 22  2  0  0  0
 23 36  2  0  0  0
 37 34  2  0  0  0
 37 35  2  0  0  0
M  END
> <rmsd>
0.288298547

$$$$
CHEMBL4105382_5TGZ


 37 40  0  0  0  0  0  0  0  0999 V2000
   42.5532   27.4003  321.2549 C   0  0  0  0  0
   43.2565   27.0417  319.9857 C   0  0  0  0  0
   44.0823   25.9516  319.7850 C   0  0  0  0  0
   44.0678   27.1241  317.9992 C   0  0  0  0  0
   42.5945   29.0512  318.6646 C   0  0  0  0  0
   41.2805   29.2472  319.1122 C   0  0  0  0  0
   40.6486   30.4797  318.9297 C   0  0  0  0  0
   41.3240   31.5354  318.2992 C   0  0  0  0  0
   42.6364   31.3433  317.8582 C   0  0  0  0  0
   43.2691   30.1110  318.0408 C   0  0  0  0  0
   38.7327   34.8296  318.1642 C   0  0  0  0  0
   39.6364   35.8023  318.9022 C   0  0  0  0  0
   40.9839   35.8997  318.2137 C   0  0  0  0  0
   44.3011   27.5046  316.5891 C   0  0  0  0  0
   45.5853   27.4474  316.0045 C   0  0  0  0  0
   45.7525   27.7870  314.6581 C   0  0  0  0  0
   44.6560   28.1720  313.8842 C   0  0  0  0  0
   43.3834   28.2224  314.4539 C   0  0  0  0  0
   43.2078   27.8871  315.7977 C   0  0  0  0  0
   44.4047   24.8827  320.7437 C   0  0  0  0  0
   44.5420   21.7996  321.1280 C   0  0  0  0  0
   44.7653   20.6457  322.1136 C   0  0  0  0  0
   46.2301   20.5238  322.5423 C   0  0  0  0  0
   47.1693   20.8234  321.3756 C   0  0  0  0  0
   46.8526   22.1757  320.7125 C   0  0  0  0  0
   44.5876   25.9983  318.5366 N   0  0  0  0  0
   43.2488   27.7833  318.8586 N   0  0  0  0  0
   45.3026   23.8388  320.3589 N   0  0  0  0  0
   45.6209   22.7836  321.2259 N   0  0  0  0  0
   40.7210   32.7804  318.0991 O   0  0  0  0  0
   38.1605   32.2249  317.8980 O   0  0  0  0  0
   39.0002   32.9639  320.0813 O   0  0  0  0  0
   43.8976   24.8831  321.8976 O   0  0  0  0  0
   39.1242   33.1440  318.5941 S   0  0  0  0  0
   41.7936   36.7766  318.9090 F   0  0  0  0  0
   44.8785   28.5941  312.2006 Cl  0  0  0  0  0
   47.0176   27.0111  316.9260 Cl  0  0  0  0  0
  1  2  1  0  0  0
  3 26  1  0  0  0
  3 20  1  0  0  0
  4 27  1  0  0  0
  4 14  1  0  0  0
  6  7  1  0  0  0
  8  9  1  0  0  0
  8 30  1  0  0  0
 10  5  1  0  0  0
 11 12  1  0  0  0
 12 13  1  0  0  0
 13 35  1  0  0  0
 15 16  1  0  0  0
 15 37  1  0  0  0
 17 18  1  0  0  0
 17 36  1  0  0  0
 19 14  1  0  0  0
 20 28  1  0  0  0
 21 29  1  0  0  0
 21 22  1  0  0  0
 22 23  1  0  0  0
 23 24  1  0  0  0
 24 25  1  0  0  0
 25 29  1  0  0  0
 27  5  1  0  0  0
 27  2  1  0  0  0
 28 29  1  0  0  0
 34 30  1  0  0  0
 34 11  1  0  0  0
  2  3  2  0  0  0
  4 26  2  0  0  0
  5  6  2  0  0  0
  7  8  2  0  0  0
  9 10  2  0  0  0
 14 15  2  0  0  0
 16 17  2  0  0  0
 18 19  2  0  0  0
 20 33  2  0  0  0
 34 31  2  0  0  0
 34 32  2  0  0  0
M  END
> <rmsd>
0.283195108

$$$$
CHEMBL4090706_6KQI


 40 43  0  0  0  0  0  0  0  0999 V2000
   42.6823   27.4785  321.3605 C   0  0  0  0  0
   43.3321   27.1028  320.0666 C   0  0  0  0  0
   44.1509   26.0072  319.8575 C   0  0  0  0  0
   44.0341   27.1185  318.0410 C   0  0  0  0  0
   42.5349   29.0399  318.6821 C   0  0  0  0  0
   42.9921   29.9728  317.7364 C   0  0  0  0  0
   42.2818   31.1515  317.4962 C   0  0  0  0  0
   41.1014   31.4218  318.2043 C   0  0  0  0  0
   40.6498   30.5066  319.1585 C   0  0  0  0  0
   41.3587   29.3252  319.3934 C   0  0  0  0  0
   39.5601   35.0506  316.8121 C   0  0  0  0  0
   39.7183   35.8208  318.1139 C   0  0  0  0  0
   38.6733   36.9204  318.2352 C   0  0  0  0  0
   44.2276   27.4620  316.6225 C   0  0  0  0  0
   43.1669   27.4223  315.6964 C   0  0  0  0  0
   43.4020   27.7528  314.3567 C   0  0  0  0  0
   44.6861   28.1110  313.9323 C   0  0  0  0  0
   45.7445   28.1371  314.8457 C   0  0  0  0  0
   45.5150   27.8092  316.1844 C   0  0  0  0  0
   44.4926   24.9436  320.8159 C   0  0  0  0  0
   45.6106   22.7021  321.2250 C   0  0  0  0  0
   46.8825   22.0251  320.7165 C   0  0  0  0  0
   47.2587   20.8067  321.5688 C   0  0  0  0  0
   46.0528   20.0930  322.1920 C   0  0  0  0  0
   44.8051   20.2582  321.3310 C   0  0  0  0  0
   44.4110   21.7368  321.2110 C   0  0  0  0  0
   44.5920   26.0152  318.5855 N   0  0  0  0  0
   43.2624   27.8139  318.9173 N   0  0  0  0  0
   45.3226   23.8600  320.3921 N   0  0  0  0  0
   40.3616   32.5864  317.9825 O   0  0  0  0  0
   42.1226   34.2559  316.9565 O   0  0  0  0  0
   40.6505   33.0455  315.4127 O   0  0  0  0  0
   44.0391   24.9724  321.9914 O   0  0  0  0  0
   43.5284   22.0686  322.2382 O   0  0  0  0  0
   40.7341   33.7169  316.7536 S   0  0  0  0  0
   38.8715   37.5959  319.4230 F   0  0  0  0  0
   37.4039   36.3700  318.2360 F   0  0  0  0  0
   38.7921   37.8111  317.1835 F   0  0  0  0  0
   44.9653   28.5300  312.2547 Cl  0  0  0  0  0
   41.5400   26.9454  316.1626 Cl  0  0  0  0  0
  1  2  1  0  0  0
  3 27  1  0  0  0
  3 20  1  0  0  0
  4 28  1  0  0  0
  4 14  1  0  0  0
  6  7  1  0  0  0
  8  9  1  0  0  0
  8 30  1  0  0  0
 10  5  1  0  0  0
 11 12  1  0  0  0
 12 13  1  0  0  0
 13 36  1  0  0  0
 13 37  1  0  0  0
 13 38  1  0  0  0
 15 16  1  0  0  0
 15 40  1  0  0  0
 17 18  1  0  0  0
 17 39  1  0  0  0
 19 14  1  0  0  0
 20 29  1  0  0  0
 21 29  1  0  0  0
 21 22  1  0  0  0
 22 23  1  0  0  0
 23 24  1  0  0  0
 24 25  1  0  0  0
 25 26  1  0  0  0
 26 34  1  0  0  0
 26 21  1  0  0  0
 28  5  1  0  0  0
 28  2  1  0  0  0
 35 30  1  0  0  0
 35 11  1  0  0  0
  2  3  2  0  0  0
  4 27  2  0  0  0
  5  6  2  0  0  0
  7  8  2  0  0  0
  9 10  2  0  0  0
 14 15  2  0  0  0
 16 17  2  0  0  0
 18 19  2  0  0  0
 20 33  2  0  0  0
 35 31  2  0  0  0
 35 32  2  0  0  0
M  END
> <rmsd>
0.27545318

$$$$
CHEMBL2030939_5TGZ


 35 38  0  0  0  0  0  0  0  0999 V2000
   40.2648   18.7700  321.8871 C   0  0  0  0  0
   41.3610   18.3056  320.9516 C   0  0  0  0  0
   43.6892   19.0661  321.2163 C   0  0  0  0  0
   46.0723   19.8378  321.3804 C   0  0  0  0  0
   46.6958   21.0479  322.0699 C   0  0  0  0  0
   46.4634   22.3027  321.2336 C   0  0  0  0  0
   44.9669   22.5383  321.0492 C   0  0  0  0  0
   44.0832   24.8782  320.7121 C   0  0  0  0  0
   43.8319   26.0005  319.7953 C   0  0  0  0  0
   44.0415   27.4487  316.5720 C   0  0  0  0  0
   44.6568   28.6742  316.2712 C   0  0  0  0  0
   44.9658   29.0083  314.9510 C   0  0  0  0  0
   44.6679   28.1172  313.9186 C   0  0  0  0  0
   44.0565   26.8941  314.2053 C   0  0  0  0  0
   43.7435   26.5531  315.5246 C   0  0  0  0  0
   43.1797   27.8907  318.8829 C   0  0  0  0  0
   42.5374   29.2023  318.6431 C   0  0  0  0  0
   41.8149   29.4336  317.4624 C   0  0  0  0  0
   41.1984   30.6685  317.2418 C   0  0  0  0  0
   41.2964   31.6800  318.2026 C   0  0  0  0  0
   42.0003   31.4527  319.3882 C   0  0  0  0  0
   42.6168   30.2172  319.6084 C   0  0  0  0  0
   43.2109   27.2048  320.0864 C   0  0  0  0  0
   42.5947   27.6187  321.3820 C   0  0  0  0  0
   44.3224   21.3330  320.3680 C   0  0  0  0  0
   42.3599   19.3108  320.8581 O   0  0  0  0  0
   44.0299   17.9333  321.6572 O   0  0  0  0  0
   43.7086   24.9373  321.9147 O   0  0  0  0  0
   44.6662   20.1050  321.0809 N   0  0  0  0  0
   44.7585   23.7167  320.2263 N   0  0  0  0  0
   44.1635   25.9731  318.4903 N   0  0  0  0  0
   43.7644   27.1107  317.9404 N   0  0  0  0  0
   45.0564   28.5329  312.2635 Cl  0  0  0  0  0
   42.9418   25.0176  315.8187 Cl  0  0  0  0  0
   40.5229   33.2257  317.9266 Cl  0  0  0  0  0
  1  2  1  0  0  0
  2 26  1  0  0  0
  3 26  1  0  0  0
  3 29  1  0  0  0
  4 29  1  0  0  0
  4  5  1  0  0  0
  5  6  1  0  0  0
  6  7  1  0  0  0
  7 30  1  0  0  0
  7 25  1  0  0  0
  8  9  1  0  0  0
 11 12  1  0  0  0
 13 33  1  0  0  0
 13 14  1  0  0  0
 15 34  1  0  0  0
 15 10  1  0  0  0
 16 17  1  0  0  0
 18 19  1  0  0  0
 20 35  1  0  0  0
 20 21  1  0  0  0
 22 17  1  0  0  0
 23  9  1  0  0  0
 24 23  1  0  0  0
 25 29  1  0  0  0
 30  8  1  0  0  0
 32 31  1  0  0  0
 32 10  1  0  0  0
 32 16  1  0  0  0
  3 27  2  0  0  0
  8 28  2  0  0  0
  9 31  2  0  0  0
 10 11  2  0  0  0
 12 13  2  0  0  0
 14 15  2  0  0  0
 16 23  2  0  0  0
 17 18  2  0  0  0
 19 20  2  0  0  0
 21 22  2  0  0  0
M  END
> <rmsd>
0.409614354

$$$$
CHEMBL1088245_5TGZ


 31 34  0  0  0  0  0  0  0  0999 V2000
   43.5728   27.9478  322.0403 C   0  0  0  0  0
   43.1088   26.7122  319.7888 C   0  0  0  0  0
   43.9820   25.6774  319.4875 C   0  0  0  0  0
   44.3468   24.5331  320.3372 C   0  0  0  0  0
   46.3620   22.8755  321.8099 C   0  0  0  0  0
   46.8830   21.6694  322.5868 C   0  0  0  0  0
   45.7293   20.7179  322.8872 C   0  0  0  0  0
   45.0163   20.3300  321.5959 C   0  0  0  0  0
   44.5710   21.5904  320.8590 C   0  0  0  0  0
   44.2322   27.4376  316.4259 C   0  0  0  0  0
   43.1553   27.7361  315.5769 C   0  0  0  0  0
   43.3810   28.1495  314.2623 C   0  0  0  0  0
   44.6865   28.2631  313.7818 C   0  0  0  0  0
   45.7663   27.9641  314.6154 C   0  0  0  0  0
   45.5485   27.5473  315.9323 C   0  0  0  0  0
   43.1253   27.5310  318.6700 C   0  0  0  0  0
   42.4169   28.8216  318.5190 C   0  0  0  0  0
   41.1166   28.9814  319.0183 C   0  0  0  0  0
   40.4517   30.2033  318.8839 C   0  0  0  0  0
   41.0841   31.2763  318.2506 C   0  0  0  0  0
   42.3819   31.1284  317.7549 C   0  0  0  0  0
   43.0459   29.9063  317.8906 C   0  0  0  0  0
   42.2154   26.9785  321.3250 S   0  0  0  0  0
   43.8328   24.3979  321.4800 O   0  0  0  0  0
   45.2958   23.5700  319.8491 N   0  0  0  0  0
   45.7318   22.4347  320.5620 N   0  0  0  0  0
   44.4884   25.8670  318.2538 N   0  0  0  0  0
   43.9766   26.9874  317.7659 N   0  0  0  0  0
   44.9705   28.7832  312.1353 Cl  0  0  0  0  0
   46.9466   27.2247  316.9454 Cl  0  0  0  0  0
   40.2518   32.8063  318.0810 Cl  0  0  0  0  0
  1 23  1  0  0  0
  2 23  1  0  0  0
  2  3  1  0  0  0
  3  4  1  0  0  0
  4 25  1  0  0  0
  5 26  1  0  0  0
  5  6  1  0  0  0
  6  7  1  0  0  0
  7  8  1  0  0  0
  8  9  1  0  0  0
  9 26  1  0  0  0
 11 12  1  0  0  0
 13 29  1  0  0  0
 13 14  1  0  0  0
 15 30  1  0  0  0
 15 10  1  0  0  0
 16 17  1  0  0  0
 18 19  1  0  0  0
 20 31  1  0  0  0
 20 21  1  0  0  0
 22 17  1  0  0  0
 25 26  1  0  0  0
 28 27  1  0  0  0
 28 10  1  0  0  0
 28 16  1  0  0  0
  3 27  2  0  0  0
  4 24  2  0  0  0
 10 11  2  0  0  0
 12 13  2  0  0  0
 14 15  2  0  0  0
 16  2  2  0  0  0
 17 18  2  0  0  0
 19 20  2  0  0  0
 21 22  2  0  0  0
M  END
> <rmsd>
0.369282514

$$$$
CHEMBL480541_6KQI


 33 36  0  0  0  0  0  0  0  0999 V2000
   45.6617   22.7100  318.8195 O   0  0  0  0  0
   44.6392   23.2006  319.3680 C   0  0  0  0  0
   43.3911   23.3753  318.5758 C   0  0  0  0  0
   42.9918   26.8389  317.9733 C   0  0  0  0  0
   42.4868   28.1871  318.3183 C   0  0  0  0  0
   41.9703   29.0008  317.2982 C   0  0  0  0  0
   41.4681   30.2717  317.5817 C   0  0  0  0  0
   41.4736   30.7452  318.8934 C   0  0  0  0  0
   41.9849   29.9496  319.9200 C   0  0  0  0  0
   42.4885   28.6738  319.6460 C   0  0  0  0  0
   43.5675   26.4149  316.7819 C   0  0  0  0  0
   43.9289   27.2177  315.6013 C   0  0  0  0  0
   43.4262   26.8278  314.3534 C   0  0  0  0  0
   43.7349   27.5591  313.2044 C   0  0  0  0  0
   44.5567   28.6838  313.2934 C   0  0  0  0  0
   45.0850   29.0667  314.5280 C   0  0  0  0  0
   44.7808   28.3409  315.6839 C   0  0  0  0  0
   45.8541   23.4782  321.5741 C   0  0  0  0  0
   45.9734   22.0684  322.0443 C   0  0  0  0  0
   46.8555   21.1893  321.4064 C   0  0  0  0  0
   46.9552   19.8628  321.8364 C   0  0  0  0  0
   46.1716   19.4133  322.9036 C   0  0  0  0  0
   45.2867   20.2893  323.5397 C   0  0  0  0  0
   45.1865   21.6159  323.1096 C   0  0  0  0  0
   43.3187   24.7318  318.0616 N   0  0  0  0  0
   42.8493   25.7546  318.7585 N   0  0  0  0  0
   43.7600   25.0858  316.8652 N   0  0  0  0  0
   44.6780   23.6336  320.7292 N   0  0  0  0  0
   40.8462   32.3389  319.2513 Cl  0  0  0  0  0
   43.1626   27.7609  320.9890 Cl  0  0  0  0  0
   44.9418   29.6022  311.8546 Cl  0  0  0  0  0
   45.5483   28.8288  317.1887 Cl  0  0  0  0  0
   46.2958   17.7524  323.4406 Cl  0  0  0  0  0
  2 28  1  0  0  0
  3  2  1  0  0  0
  3 25  1  0  0  0
  4  5  1  0  0  0
  4 11  1  0  0  0
  6  7  1  0  0  0
  8 29  1  0  0  0
  8  9  1  0  0  0
 10 30  1  0  0  0
 10  5  1  0  0  0
 11 12  1  0  0  0
 13 14  1  0  0  0
 15 31  1  0  0  0
 15 16  1  0  0  0
 17 32  1  0  0  0
 17 12  1  0  0  0
 18 28  1  0  0  0
 18 19  1  0  0  0
 20 21  1  0  0  0
 22 33  1  0  0  0
 22 23  1  0  0  0
 24 19  1  0  0  0
 25 26  1  0  0  0
 25 27  1  0  0  0
  2  1  2  0  0  0
  4 26  2  0  0  0
  5  6  2  0  0  0
  7  8  2  0  0  0
  9 10  2  0  0  0
 11 27  2  0  0  0
 12 13  2  0  0  0
 14 15  2  0  0  0
 16 17  2  0  0  0
 19 20  2  0  0  0
 21 22  2  0  0  0
 23 24  2  0  0  0
M  END
> <rmsd>
0.734692216

$$$$
CHEMBL460987_5TGZ


 35 38  0  0  0  0  0  0  0  0999 V2000
   39.8559   35.9653  317.2099 C   0  0  0  0  0
   38.7123   35.0085  316.9269 C   0  0  0  0  0
   39.1571   33.9136  315.9723 C   0  0  0  0  0
   39.9766   32.9208  316.6743 C   0  0  0  0  0
   40.6512   32.1048  317.2508 C   0  0  0  0  0
   41.4544   31.1341  317.9370 C   0  0  0  0  0
   41.9284   31.2627  319.2333 C   0  0  0  0  0
   42.6828   30.1546  319.6435 C   0  0  0  0  0
   42.8015   29.1749  318.6609 C   0  0  0  0  0
   43.4939   27.8786  318.8303 C   0  0  0  0  0
   43.6337   27.1812  320.0199 C   0  0  0  0  0
   43.1074   27.5648  321.3657 C   0  0  0  0  0
   41.6708   27.1026  321.5125 C   0  0  0  0  0
   44.2464   25.9889  319.6638 C   0  0  0  0  0
   44.6004   24.8676  320.5476 C   0  0  0  0  0
   44.4204   22.0055  321.3883 C   0  0  0  0  0
   44.5970   20.5175  321.6753 C   0  0  0  0  0
   45.7514   20.2568  322.6370 C   0  0  0  0  0
   47.0816   20.4283  321.9138 C   0  0  0  0  0
   47.6140   21.8639  321.9696 C   0  0  0  0  0
   46.5606   22.9498  321.7363 C   0  0  0  0  0
   44.2054   27.4908  316.4626 C   0  0  0  0  0
   44.8881   28.6748  316.1461 C   0  0  0  0  0
   45.0987   29.0359  314.8136 C   0  0  0  0  0
   44.6340   28.2126  313.7861 C   0  0  0  0  0
   43.9606   27.0274  314.0906 C   0  0  0  0  0
   43.7482   26.6582  315.4225 C   0  0  0  0  0
   44.3713   24.9377  321.7853 O   0  0  0  0  0
   45.2112   23.6938  319.9849 N   0  0  0  0  0
   45.5971   22.5502  320.7144 N   0  0  0  0  0
   44.4808   25.9856  318.3374 N   0  0  0  0  0
   44.0233   27.1239  317.8373 N   0  0  0  0  0
   44.8949   28.6659  312.1162 Cl  0  0  0  0  0
   42.8674   25.1748  315.7507 Cl  0  0  0  0  0
   41.9502   29.6679  317.2932 S   0  0  0  0  0
  1  2  1  0  0  0
  2  3  1  0  0  0
  3  4  1  0  0  0
  6  5  1  0  0  0
  6 35  1  0  0  0
  7  8  1  0  0  0
  9 10  1  0  0  0
  9 35  1  0  0  0
 11 14  1  0  0  0
 12 11  1  0  0  0
 12 13  1  0  0  0
 14 15  1  0  0  0
 15 29  1  0  0  0
 16 30  1  0  0  0
 16 17  1  0  0  0
 17 18  1  0  0  0
 18 19  1  0  0  0
 19 20  1  0  0  0
 20 21  1  0  0  0
 21 30  1  0  0  0
 23 24  1  0  0  0
 25 33  1  0  0  0
 25 26  1  0  0  0
 27 34  1  0  0  0
 27 22  1  0  0  0
 29 30  1  0  0  0
 32 31  1  0  0  0
 32 22  1  0  0  0
 32 10  1  0  0  0
  6  7  2  0  0  0
  8  9  2  0  0  0
 10 11  2  0  0  0
 14 31  2  0  0  0
 15 28  2  0  0  0
 22 23  2  0  0  0
 24 25  2  0  0  0
 26 27  2  0  0  0
  4  5  3  0  0  0
M  END
> <rmsd>
0.420379132

$$$$
CHEMBL4082908_5TGZ


 40 43  0  0  0  0  0  0  0  0999 V2000
   42.6549   27.5864  321.3192 C   0  0  0  0  0
   43.3431   27.2123  320.0451 C   0  0  0  0  0
   44.0750   26.0604  319.8231 C   0  0  0  0  0
   43.9764   27.1599  317.9968 C   0  0  0  0  0
   42.5366   29.1220  318.6420 C   0  0  0  0  0
   41.9250   29.3484  317.3992 C   0  0  0  0  0
   41.2245   30.5323  317.1572 C   0  0  0  0  0
   41.1211   31.5101  318.1575 C   0  0  0  0  0
   41.7225   31.2859  319.3991 C   0  0  0  0  0
   42.4253   30.1022  319.6400 C   0  0  0  0  0
   38.9645   34.7362  316.5957 C   0  0  0  0  0
   38.0130   34.7776  317.7807 C   0  0  0  0  0
   37.4484   36.1747  317.9827 C   0  0  0  0  0
   44.2338   27.5337  316.5954 C   0  0  0  0  0
   44.9419   28.7046  316.2520 C   0  0  0  0  0
   45.1558   29.0154  314.9058 C   0  0  0  0  0
   44.6759   28.1728  313.9014 C   0  0  0  0  0
   43.9887   27.0045  314.2383 C   0  0  0  0  0
   43.7729   26.6843  315.5805 C   0  0  0  0  0
   44.4142   25.0115  320.7972 C   0  0  0  0  0
   45.6258   21.6098  320.5089 C   0  0  0  0  0
   45.9391   20.4384  321.4472 C   0  0  0  0  0
   46.6885   20.8901  322.7076 C   0  0  0  0  0
   47.6160   22.0636  322.4006 C   0  0  0  0  0
   46.8644   23.2324  321.7397 C   0  0  0  0  0
   44.4724   26.0247  318.5357 N   0  0  0  0  0
   43.2732   27.9059  318.8879 N   0  0  0  0  0
   45.1168   23.8453  320.3611 N   0  0  0  0  0
   45.5260   22.8559  321.2643 N   0  0  0  0  0
   40.4341   32.7091  317.9468 O   0  0  0  0  0
   38.6286   32.1139  316.1264 O   0  0  0  0  0
   40.7258   33.1386  315.3708 O   0  0  0  0  0
   44.1011   25.1401  322.0109 O   0  0  0  0  0
   48.2287   22.5009  323.5731 O   0  0  0  0  0
   39.6930   33.1203  316.4608 S   0  0  0  0  0
   38.4749   37.0681  318.2274 F   0  0  0  0  0
   36.7475   36.5714  316.8580 F   0  0  0  0  0
   36.5933   36.1635  319.0677 F   0  0  0  0  0
   44.9447   28.5762  312.2198 Cl  0  0  0  0  0
   45.6125   29.7810  317.4690 Cl  0  0  0  0  0
  1  2  1  0  0  0
  3 26  1  0  0  0
  3 20  1  0  0  0
  4 27  1  0  0  0
  4 14  1  0  0  0
  6  7  1  0  0  0
  8  9  1  0  0  0
  8 30  1  0  0  0
 10  5  1  0  0  0
 11 12  1  0  0  0
 12 13  1  0  0  0
 13 36  1  0  0  0
 13 37  1  0  0  0
 13 38  1  0  0  0
 15 16  1  0  0  0
 15 40  1  0  0  0
 17 18  1  0  0  0
 17 39  1  0  0  0
 19 14  1  0  0  0
 20 28  1  0  0  0
 21 29  1  0  0  0
 21 22  1  0  0  0
 22 23  1  0  0  0
 23 24  1  0  0  0
 24 25  1  0  0  0
 24 34  1  0  0  0
 25 29  1  0  0  0
 27  5  1  0  0  0
 27  2  1  0  0  0
 28 29  1  0  0  0
 35 30  1  0  0  0
 35 11  1  0  0  0
  2  3  2  0  0  0
  4 26  2  0  0  0
  5  6  2  0  0  0
  7  8  2  0  0  0
  9 10  2  0  0  0
 14 15  2  0  0  0
 16 17  2  0  0  0
 18 19  2  0  0  0
 20 33  2  0  0  0
 35 31  2  0  0  0
 35 32  2  0  0  0
M  END
> <rmsd>
0.267647892

$$$$
CHEMBL15874_5TGZ


 30 33  0  0  0  0  0  0  0  0999 V2000
   42.7863   27.5151  321.4258 C   0  0  0  0  0
   43.3923   27.1324  320.1164 C   0  0  0  0  0
   44.1297   25.9942  319.8323 C   0  0  0  0  0
   44.5274   24.9303  320.7671 C   0  0  0  0  0
   45.6862   22.7096  321.1383 C   0  0  0  0  0
   44.4806   21.8305  321.4713 C   0  0  0  0  0
   44.8654   20.6964  322.4312 C   0  0  0  0  0
   46.3224   20.2363  322.2847 C   0  0  0  0  0
   46.8214   20.4228  320.8548 C   0  0  0  0  0
   46.7883   21.9006  320.4407 C   0  0  0  0  0
   44.1588   27.4163  316.5917 C   0  0  0  0  0
   44.6813   28.6805  316.2785 C   0  0  0  0  0
   44.9434   29.0312  314.9525 C   0  0  0  0  0
   44.6911   28.1183  313.9271 C   0  0  0  0  0
   44.1772   26.8548  314.2272 C   0  0  0  0  0
   43.9143   26.4954  315.5528 C   0  0  0  0  0
   43.2733   27.7948  318.9046 C   0  0  0  0  0
   42.4980   29.0329  318.6574 C   0  0  0  0  0
   42.4258   30.0324  319.6389 C   0  0  0  0  0
   41.6833   31.1949  319.4135 C   0  0  0  0  0
   41.0028   31.3654  318.2053 C   0  0  0  0  0
   41.0608   30.3720  317.2249 C   0  0  0  0  0
   41.8031   29.2100  317.4518 C   0  0  0  0  0
   44.2094   24.9995  321.9852 O   0  0  0  0  0
   45.2828   23.8161  320.2842 N   0  0  0  0  0
   44.4456   25.9826  318.5229 N   0  0  0  0  0
   43.9242   27.0653  317.9645 N   0  0  0  0  0
   45.0172   28.5575  312.2650 Cl  0  0  0  0  0
   43.2334   24.9072  315.8668 Cl  0  0  0  0  0
   40.0741   32.8213  317.9219 Cl  0  0  0  0  0
  1  2  1  0  0  0
  2  3  1  0  0  0
  3  4  1  0  0  0
  4 25  1  0  0  0
  5 25  1  0  0  0
  5  6  1  0  0  0
  6  7  1  0  0  0
  7  8  1  0  0  0
  8  9  1  0  0  0
  9 10  1  0  0  0
 10  5  1  0  0  0
 12 13  1  0  0  0
 14 28  1  0  0  0
 14 15  1  0  0  0
 16 29  1  0  0  0
 16 11  1  0  0  0
 17 18  1  0  0  0
 19 20  1  0  0  0
 21 30  1  0  0  0
 21 22  1  0  0  0
 23 18  1  0  0  0
 27 26  1  0  0  0
 27 11  1  0  0  0
 27 17  1  0  0  0
  3 26  2  0  0  0
  4 24  2  0  0  0
 11 12  2  0  0  0
 13 14  2  0  0  0
 15 16  2  0  0  0
 17  2  2  0  0  0
 18 19  2  0  0  0
 20 21  2  0  0  0
 22 23  2  0  0  0
M  END
> <rmsd>
0.250901997

$$$$
CHEMBL462053_5TGZ


 33 36  0  0  0  0  0  0  0  0999 V2000
   38.9895   33.4987  314.9395 C   0  0  0  0  0
   39.0982   33.5877  316.4467 C   0  0  0  0  0
   39.0025   32.1961  317.0429 C   0  0  0  0  0
   39.1291   32.2560  318.5583 C   0  0  0  0  0
   40.5611   32.5520  318.9877 C   0  0  0  0  0
   41.4493   31.3771  318.7499 C   0  0  0  0  0
   42.5288   31.3614  317.8798 C   0  0  0  0  0
   43.1939   30.1277  317.8647 C   0  0  0  0  0
   42.6309   29.1858  318.7219 C   0  0  0  0  0
   43.1275   27.8070  318.9292 C   0  0  0  0  0
   43.0094   27.0565  320.0885 C   0  0  0  0  0
   42.3546   27.4518  321.3700 C   0  0  0  0  0
   43.7036   25.8852  319.8295 C   0  0  0  0  0
   43.9084   24.7476  320.7390 C   0  0  0  0  0
   45.2062   21.3733  320.2596 C   0  0  0  0  0
   46.7015   21.1165  320.0581 C   0  0  0  0  0
   47.3836   20.8496  321.4013 C   0  0  0  0  0
   46.7766   21.6660  322.5462 C   0  0  0  0  0
   46.0493   22.8974  322.0113 C   0  0  0  0  0
   44.1484   27.4238  316.6753 C   0  0  0  0  0
   43.1017   27.7641  315.8053 C   0  0  0  0  0
   43.3621   28.0640  314.4664 C   0  0  0  0  0
   44.6713   28.0200  313.9839 C   0  0  0  0  0
   45.7200   27.6742  314.8391 C   0  0  0  0  0
   45.4667   27.3700  316.1803 C   0  0  0  0  0
   43.4160   24.7595  321.8993 O   0  0  0  0  0
   44.6696   23.6208  320.2973 N   0  0  0  0  0
   44.9236   22.5256  321.1365 N   0  0  0  0  0
   44.2008   25.9283  318.5785 N   0  0  0  0  0
   43.8562   27.0886  318.0400 N   0  0  0  0  0
   44.9987   28.3982  312.3069 Cl  0  0  0  0  0
   46.8261   26.9732  317.2190 Cl  0  0  0  0  0
   41.3164   29.8848  319.5081 S   0  0  0  0  0
  1  2  1  0  0  0
  2  3  1  0  0  0
  3  4  1  0  0  0
  4  5  1  0  0  0
  5  6  1  0  0  0
  6 33  1  0  0  0
  7  8  1  0  0  0
  9 10  1  0  0  0
  9 33  1  0  0  0
 11 13  1  0  0  0
 12 11  1  0  0  0
 13 14  1  0  0  0
 14 27  1  0  0  0
 15 28  1  0  0  0
 15 16  1  0  0  0
 16 17  1  0  0  0
 17 18  1  0  0  0
 18 19  1  0  0  0
 19 28  1  0  0  0
 21 22  1  0  0  0
 23 31  1  0  0  0
 23 24  1  0  0  0
 25 32  1  0  0  0
 25 20  1  0  0  0
 27 28  1  0  0  0
 30 29  1  0  0  0
 30 20  1  0  0  0
 30 10  1  0  0  0
  6  7  2  0  0  0
  8  9  2  0  0  0
 10 11  2  0  0  0
 13 29  2  0  0  0
 14 26  2  0  0  0
 20 21  2  0  0  0
 22 23  2  0  0  0
 24 25  2  0  0  0
M  END
> <rmsd>
0.550738454

$$$$
CHEMBL2022405_5TGZ


 31 34  0  0  0  0  0  0  0  0999 V2000
   42.7646   27.4641  321.3994 C   0  0  0  0  0
   43.3510   27.0827  320.0807 C   0  0  0  0  0
   44.0406   25.9211  319.7717 C   0  0  0  0  0
   44.3976   24.8231  320.6836 C   0  0  0  0  0
   45.5325   22.5322  320.8997 C   0  0  0  0  0
   45.2824   22.3892  322.2736 C   0  0  0  0  0
   45.7129   21.2472  322.9552 C   0  0  0  0  0
   46.3963   20.2405  322.2684 C   0  0  0  0  0
   46.6487   20.3760  320.9006 C   0  0  0  0  0
   46.2176   21.5188  320.2200 C   0  0  0  0  0
   44.1215   27.4066  316.5604 C   0  0  0  0  0
   44.6946   28.6545  316.2716 C   0  0  0  0  0
   44.9686   29.0211  314.9522 C   0  0  0  0  0
   44.6773   28.1403  313.9092 C   0  0  0  0  0
   44.1127   26.8932  314.1850 C   0  0  0  0  0
   43.8376   26.5179  315.5036 C   0  0  0  0  0
   43.2569   27.7739  318.8828 C   0  0  0  0  0
   42.5329   29.0478  318.6632 C   0  0  0  0  0
   42.5046   30.0294  319.6646 C   0  0  0  0  0
   41.8105   31.2260  319.4649 C   0  0  0  0  0
   41.1346   31.4487  318.2626 C   0  0  0  0  0
   41.1490   30.4737  317.2623 C   0  0  0  0  0
   41.8430   29.2776  317.4636 C   0  0  0  0  0
   44.0819   24.8857  321.9021 O   0  0  0  0  0
   46.8241   19.1062  322.9442 O   0  0  0  0  0
   45.1066   23.6884  320.1661 N   0  0  0  0  0
   44.3529   25.9233  318.4613 N   0  0  0  0  0
   43.8752   27.0374  317.9265 N   0  0  0  0  0
   45.0181   28.5998  312.2554 Cl  0  0  0  0  0
   43.0927   24.9527  315.7870 Cl  0  0  0  0  0
   40.2663   32.9472  318.0114 Cl  0  0  0  0  0
  1  2  1  0  0  0
  2  3  1  0  0  0
  3  4  1  0  0  0
  4 26  1  0  0  0
  6  7  1  0  0  0
  8 25  1  0  0  0
  8  9  1  0  0  0
 10  5  1  0  0  0
 12 13  1  0  0  0
 14 29  1  0  0  0
 14 15  1  0  0  0
 16 30  1  0  0  0
 16 11  1  0  0  0
 17 18  1  0  0  0
 19 20  1  0  0  0
 21 31  1  0  0  0
 21 22  1  0  0  0
 23 18  1  0  0  0
 26  5  1  0  0  0
 28 27  1  0  0  0
 28 11  1  0  0  0
 28 17  1  0  0  0
  3 27  2  0  0  0
  4 24  2  0  0  0
  5  6  2  0  0  0
  7  8  2  0  0  0
  9 10  2  0  0  0
 11 12  2  0  0  0
 13 14  2  0  0  0
 15 16  2  0  0  0
 17  2  2  0  0  0
 18 19  2  0  0  0
 20 21  2  0  0  0
 22 23  2  0  0  0
M  END
> <rmsd>
0.24834156

$$$$
CHEMBL2030769_5TGZ


 34 37  0  0  0  0  0  0  0  0999 V2000
   42.5529   27.6540  321.4041 C   0  0  0  0  0
   43.2153   27.2614  320.1252 C   0  0  0  0  0
   43.9128   26.0916  319.8672 C   0  0  0  0  0
   44.2021   24.9980  320.8076 C   0  0  0  0  0
   45.2964   22.7541  321.2328 C   0  0  0  0  0
   45.7162   21.5496  320.3935 C   0  0  0  0  0
   46.1992   20.4014  321.2838 C   0  0  0  0  0
   46.9911   20.8997  322.4988 C   0  0  0  0  0
   47.5847   22.6196  325.1275 C   0  0  0  0  0
   46.4100   23.1931  322.2034 C   0  0  0  0  0
   44.1602   27.5198  316.6438 C   0  0  0  0  0
   43.6583   26.6905  315.6328 C   0  0  0  0  0
   43.9179   26.9763  314.2905 C   0  0  0  0  0
   44.6890   28.0897  313.9503 C   0  0  0  0  0
   45.2136   28.9091  314.9522 C   0  0  0  0  0
   44.9577   28.6301  316.2980 C   0  0  0  0  0
   43.1998   27.9453  318.9185 C   0  0  0  0  0
   42.5077   29.2287  318.6428 C   0  0  0  0  0
   42.3429   30.1793  319.6611 C   0  0  0  0  0
   41.6920   31.3893  319.4051 C   0  0  0  0  0
   41.1976   31.6589  318.1270 C   0  0  0  0  0
   41.3500   30.7173  317.1069 C   0  0  0  0  0
   42.0003   29.5080  317.3651 C   0  0  0  0  0
   43.8058   25.0626  322.0026 O   0  0  0  0  0
   49.6685   21.7043  323.7134 O   0  0  0  0  0
   49.0626   24.0559  323.4157 O   0  0  0  0  0
   44.9362   23.8572  320.3550 N   0  0  0  0  0
   47.5247   22.2398  322.2574 N   0  0  0  0  0
   44.3036   26.0794  318.5781 N   0  0  0  0  0
   43.8799   27.1993  318.0124 N   0  0  0  0  0
   48.5198   22.6682  323.6123 S   0  0  0  0  0
   45.0134   28.4483  312.2686 Cl  0  0  0  0  0
   45.6913   29.6577  317.5190 Cl  0  0  0  0  0
   40.3850   33.1748  317.8046 Cl  0  0  0  0  0
  1  2  1  0  0  0
  2  3  1  0  0  0
  3  4  1  0  0  0
  4 27  1  0  0  0
  5 27  1  0  0  0
  5  6  1  0  0  0
  6  7  1  0  0  0
  7  8  1  0  0  0
  8 28  1  0  0  0
 10 28  1  0  0  0
 10  5  1  0  0  0
 12 13  1  0  0  0
 14 32  1  0  0  0
 14 15  1  0  0  0
 16 33  1  0  0  0
 16 11  1  0  0  0
 17 18  1  0  0  0
 19 20  1  0  0  0
 21 34  1  0  0  0
 21 22  1  0  0  0
 23 18  1  0  0  0
 30 29  1  0  0  0
 30 11  1  0  0  0
 30 17  1  0  0  0
 31 28  1  0  0  0
 31  9  1  0  0  0
  3 29  2  0  0  0
  4 24  2  0  0  0
 11 12  2  0  0  0
 13 14  2  0  0  0
 15 16  2  0  0  0
 17  2  2  0  0  0
 18 19  2  0  0  0
 20 21  2  0  0  0
 22 23  2  0  0  0
 31 25  2  0  0  0
 31 26  2  0  0  0
M  END
> <rmsd>
0.400857419

$$$$
CHEMBL1088244_5TGZ


 30 33  0  0  0  0  0  0  0  0999 V2000
   43.3644   28.0814  322.1766 C   0  0  0  0  0
   42.8263   26.8297  319.9506 C   0  0  0  0  0
   43.5834   25.6927  319.7099 C   0  0  0  0  0
   43.7907   24.5449  320.6062 C   0  0  0  0  0
   45.4295   21.3162  320.1598 C   0  0  0  0  0
   46.6980   20.8023  320.7944 C   0  0  0  0  0
   47.2039   21.9721  321.5850 C   0  0  0  0  0
   45.9570   22.7516  321.9379 C   0  0  0  0  0
   44.1249   27.3079  316.6061 C   0  0  0  0  0
   43.1157   27.7014  315.7139 C   0  0  0  0  0
   43.4264   28.0412  314.3957 C   0  0  0  0  0
   44.7495   27.9857  313.9549 C   0  0  0  0  0
   45.7621   27.5909  314.8319 C   0  0  0  0  0
   45.4587   27.2467  316.1530 C   0  0  0  0  0
   42.9698   27.6029  318.8085 C   0  0  0  0  0
   42.4198   28.9602  318.5954 C   0  0  0  0  0
   41.1322   29.2841  319.0458 C   0  0  0  0  0
   40.6170   30.5690  318.8530 C   0  0  0  0  0
   41.3877   31.5408  318.2099 C   0  0  0  0  0
   42.6740   31.2293  317.7628 C   0  0  0  0  0
   43.1883   29.9444  317.9568 C   0  0  0  0  0
   41.9259   27.2484  321.4481 S   0  0  0  0  0
   43.2315   24.5024  321.7347 O   0  0  0  0  0
   44.6331   23.4685  320.1868 N   0  0  0  0  0
   44.8897   22.3660  321.0156 N   0  0  0  0  0
   44.1443   25.7815  318.4885 N   0  0  0  0  0
   43.7793   26.9355  317.9499 N   0  0  0  0  0
   45.1404   28.4135  312.3036 Cl  0  0  0  0  0
   46.7793   26.7973  317.2202 Cl  0  0  0  0  0
   40.7428   33.1495  317.9671 Cl  0  0  0  0  0
  1 22  1  0  0  0
  2 22  1  0  0  0
  2  3  1  0  0  0
  3  4  1  0  0  0
  4 24  1  0  0  0
  5 25  1  0  0  0
  5  6  1  0  0  0
  6  7  1  0  0  0
  7  8  1  0  0  0
  8 25  1  0  0  0
 10 11  1  0  0  0
 12 28  1  0  0  0
 12 13  1  0  0  0
 14 29  1  0  0  0
 14  9  1  0  0  0
 15 16  1  0  0  0
 17 18  1  0  0  0
 19 30  1  0  0  0
 19 20  1  0  0  0
 21 16  1  0  0  0
 24 25  1  0  0  0
 27 26  1  0  0  0
 27  9  1  0  0  0
 27 15  1  0  0  0
  3 26  2  0  0  0
  4 23  2  0  0  0
  9 10  2  0  0  0
 11 12  2  0  0  0
 13 14  2  0  0  0
 15  2  2  0  0  0
 16 17  2  0  0  0
 18 19  2  0  0  0
 20 21  2  0  0  0
M  END
> <rmsd>
0.552702725

$$$$
CHEMBL1088221_5TGZ


 31 34  0  0  0  0  0  0  0  0999 V2000
   43.6140   28.1420  322.1440 C   0  0  0  0  0
   43.1039   26.9458  319.8802 C   0  0  0  0  0
   43.8321   25.7937  319.6340 C   0  0  0  0  0
   44.0756   24.6675  320.5504 C   0  0  0  0  0
   46.2794   22.8412  321.7653 C   0  0  0  0  0
   46.6090   21.7392  322.7802 C   0  0  0  0  0
   46.0414   20.3791  322.3654 C   0  0  0  0  0
   46.1452   20.1798  320.8545 C   0  0  0  0  0
   45.5253   21.3518  320.0732 C   0  0  0  0  0
   43.8582   26.9968  317.8721 C   0  0  0  0  0
   44.1740   27.4308  316.4995 C   0  0  0  0  0
   43.8068   26.5979  315.4349 C   0  0  0  0  0
   44.0794   26.9709  314.1169 C   0  0  0  0  0
   44.7289   28.1783  313.8538 C   0  0  0  0  0
   45.1215   29.0046  314.9090 C   0  0  0  0  0
   44.8522   28.6391  316.2315 C   0  0  0  0  0
   42.3886   28.9246  318.5274 C   0  0  0  0  0
   41.7244   29.1336  317.3086 C   0  0  0  0  0
   41.0321   30.3243  317.0735 C   0  0  0  0  0
   40.9979   31.3172  318.0553 C   0  0  0  0  0
   41.6553   31.1195  319.2721 C   0  0  0  0  0
   42.3481   29.9287  319.5062 C   0  0  0  0  0
   42.1842   27.3268  321.3789 S   0  0  0  0  0
   43.6132   24.6802  321.7224 O   0  0  0  0  0
   44.8453   23.5496  320.1007 N   0  0  0  0  0
   45.1293   22.4643  320.9423 N   0  0  0  0  0
   44.3037   25.8246  318.3719 N   0  0  0  0  0
   43.1151   27.7025  318.7617 N   0  0  0  0  0
   45.0686   28.6475  312.2025 Cl  0  0  0  0  0
   45.4435   29.6844  317.5153 Cl  0  0  0  0  0
   40.1316   32.8090  317.7612 Cl  0  0  0  0  0
  1 23  1  0  0  0
  2 23  1  0  0  0
  3  4  1  0  0  0
  3 27  1  0  0  0
  4 25  1  0  0  0
  5 26  1  0  0  0
  5  6  1  0  0  0
  6  7  1  0  0  0
  7  8  1  0  0  0
  8  9  1  0  0  0
  9 26  1  0  0  0
 10 11  1  0  0  0
 10 28  1  0  0  0
 12 13  1  0  0  0
 14 29  1  0  0  0
 14 15  1  0  0  0
 16 30  1  0  0  0
 16 11  1  0  0  0
 18 19  1  0  0  0
 20 31  1  0  0  0
 20 21  1  0  0  0
 22 17  1  0  0  0
 25 26  1  0  0  0
 28 17  1  0  0  0
 28  2  1  0  0  0
  2  3  2  0  0  0
  4 24  2  0  0  0
 10 27  2  0  0  0
 11 12  2  0  0  0
 13 14  2  0  0  0
 15 16  2  0  0  0
 17 18  2  0  0  0
 19 20  2  0  0  0
 21 22  2  0  0  0
M  END
> <rmsd>
0.330750197

$$$$
CHEMBL494728_5TGZ


 36 40  0  0  0  0  0  0  0  0999 V2000
   42.6864   27.5176  321.4088 C   0  0  0  0  0
   43.3522   27.1802  320.1165 C   0  0  0  0  0
   44.1168   26.0573  319.8387 C   0  0  0  0  0
   44.4820   24.9738  320.7645 C   0  0  0  0  0
   46.7583   22.1341  320.4894 C   0  0  0  0  0
   47.0768   20.7731  321.1336 C   0  0  0  0  0
   46.2529   20.5299  322.3967 C   0  0  0  0  0
   44.7592   20.7259  322.1242 C   0  0  0  0  0
   44.4913   21.8891  321.1609 C   0  0  0  0  0
   44.2278   27.5244  316.6262 C   0  0  0  0  0
   43.7210   26.6983  315.6151 C   0  0  0  0  0
   43.9416   27.0101  314.2715 C   0  0  0  0  0
   44.6781   28.1466  313.9303 C   0  0  0  0  0
   45.2062   28.9642  314.9322 C   0  0  0  0  0
   44.9896   28.6584  316.2791 C   0  0  0  0  0
   43.2815   27.8722  318.9170 C   0  0  0  0  0
   42.5109   29.1107  318.6550 C   0  0  0  0  0
   42.0799   29.5476  317.4042 C   0  0  0  0  0
   41.3699   30.7553  317.4491 C   0  0  0  0  0
   41.2490   31.2532  318.7367 C   0  0  0  0  0
   40.5762   32.4690  319.0931 C   0  0  0  0  0
   40.0112   33.4904  319.3950 C   0  0  0  0  0
   39.3259   34.7312  319.7630 C   0  0  0  0  0
   40.2339   35.5892  320.6580 C   0  0  0  0  0
   39.9186   35.3913  322.1393 C   0  0  0  0  0
   38.4699   35.7846  322.4588 C   0  0  0  0  0
   37.4947   35.5367  321.2992 C   0  0  0  0  0
   37.9715   34.3979  320.4027 C   0  0  0  0  0
   44.1062   25.0063  321.9671 O   0  0  0  0  0
   45.2732   23.8803  320.2929 N   0  0  0  0  0
   45.6269   22.8120  321.1297 N   0  0  0  0  0
   44.4909   26.0797  318.5449 N   0  0  0  0  0
   43.9928   27.1768  317.9960 N   0  0  0  0  0
   44.9526   28.5384  312.2470 Cl  0  0  0  0  0
   45.7190   29.6879  317.5012 Cl  0  0  0  0  0
   42.0071   30.2206  319.8177 S   0  0  0  0  0
  1  2  1  0  0  0
  2  3  1  0  0  0
  3  4  1  0  0  0
  4 30  1  0  0  0
  5 31  1  0  0  0
  5  6  1  0  0  0
  6  7  1  0  0  0
  7  8  1  0  0  0
  8  9  1  0  0  0
  9 31  1  0  0  0
 11 12  1  0  0  0
 13 34  1  0  0  0
 13 14  1  0  0  0
 15 35  1  0  0  0
 15 10  1  0  0  0
 16 17  1  0  0  0
 17 36  1  0  0  0
 18 19  1  0  0  0
 20 21  1  0  0  0
 20 36  1  0  0  0
 23 22  1  0  0  0
 23 24  1  0  0  0
 24 25  1  0  0  0
 25 26  1  0  0  0
 26 27  1  0  0  0
 27 28  1  0  0  0
 28 23  1  0  0  0
 30 31  1  0  0  0
 33 32  1  0  0  0
 33 10  1  0  0  0
 33 16  1  0  0  0
  3 32  2  0  0  0
  4 29  2  0  0  0
 10 11  2  0  0  0
 12 13  2  0  0  0
 14 15  2  0  0  0
 16  2  2  0  0  0
 17 18  2  0  0  0
 19 20  2  0  0  0
 21 22  3  0  0  0
M  END
> <rmsd>
0.255972326

$$$$
CHEMBL522824_5TGZ


 38 42  0  0  0  0  0  0  0  0999 V2000
   42.6099   27.4878  321.3899 C   0  0  0  0  0
   43.2500   27.1284  320.0906 C   0  0  0  0  0
   43.9209   25.9538  319.7862 C   0  0  0  0  0
   44.1942   24.8222  320.6856 C   0  0  0  0  0
   45.5051   21.4660  320.1288 C   0  0  0  0  0
   45.7698   20.1890  320.9367 C   0  0  0  0  0
   46.1550   20.4884  322.3879 C   0  0  0  0  0
   47.0475   21.7249  322.4737 C   0  0  0  0  0
   46.4279   22.9353  321.7534 C   0  0  0  0  0
   44.1619   27.4848  316.6110 C   0  0  0  0  0
   43.5939   26.7262  315.5795 C   0  0  0  0  0
   43.8429   27.0515  314.2441 C   0  0  0  0  0
   44.6690   28.1333  313.9313 C   0  0  0  0  0
   45.2576   28.8818  314.9532 C   0  0  0  0  0
   45.0129   28.5623  316.2923 C   0  0  0  0  0
   43.2401   27.8530  318.9084 C   0  0  0  0  0
   42.5726   29.1554  318.6755 C   0  0  0  0  0
   42.1785   29.6531  317.4352 C   0  0  0  0  0
   41.5671   30.9122  317.5080 C   0  0  0  0  0
   41.4862   31.3896  318.8066 C   0  0  0  0  0
   40.9076   32.6448  319.1903 C   0  0  0  0  0
   40.4177   33.6986  319.5101 C   0  0  0  0  0
   39.8157   34.9798  319.8920 C   0  0  0  0  0
   38.2978   34.9077  319.7915 C   0  0  0  0  0
   37.8400   34.9024  318.3691 C   0  0  0  0  0
   38.0389   36.0234  317.5527 C   0  0  0  0  0
   37.6002   36.0097  316.2253 C   0  0  0  0  0
   36.9590   34.8777  315.7126 C   0  0  0  0  0
   36.7546   33.7602  316.5276 C   0  0  0  0  0
   37.1931   33.7734  317.8551 C   0  0  0  0  0
   43.8112   24.8525  321.8862 O   0  0  0  0  0
   44.8982   23.6812  320.1891 N   0  0  0  0  0
   45.2070   22.5899  321.0139 N   0  0  0  0  0
   44.3001   25.9773  318.4939 N   0  0  0  0  0
   43.8953   27.1246  317.9717 N   0  0  0  0  0
   44.9796   28.5416  312.2582 Cl  0  0  0  0  0
   45.8187   29.5006  317.5394 Cl  0  0  0  0  0
   42.1582   30.2755  319.8634 S   0  0  0  0  0
  1  2  1  0  0  0
  2  3  1  0  0  0
  3  4  1  0  0  0
  4 32  1  0  0  0
  5 33  1  0  0  0
  5  6  1  0  0  0
  6  7  1  0  0  0
  7  8  1  0  0  0
  8  9  1  0  0  0
  9 33  1  0  0  0
 11 12  1  0  0  0
 13 36  1  0  0  0
 13 14  1  0  0  0
 15 37  1  0  0  0
 15 10  1  0  0  0
 16 17  1  0  0  0
 17 38  1  0  0  0
 18 19  1  0  0  0
 20 21  1  0  0  0
 20 38  1  0  0  0
 23 22  1  0  0  0
 23 24  1  0  0  0
 24 25  1  0  0  0
 26 27  1  0  0  0
 28 29  1  0  0  0
 30 25  1  0  0  0
 32 33  1  0  0  0
 35 34  1  0  0  0
 35 10  1  0  0  0
 35 16  1  0  0  0
  3 34  2  0  0  0
  4 31  2  0  0  0
 10 11  2  0  0  0
 12 13  2  0  0  0
 14 15  2  0  0  0
 16  2  2  0  0  0
 17 18  2  0  0  0
 19 20  2  0  0  0
 25 26  2  0  0  0
 27 28  2  0  0  0
 29 30  2  0  0  0
 21 22  3  0  0  0
M  END
> <rmsd>
0.323263109

$$$$
CHEMBL4102969_5TGZ


 37 41  0  0  0  0  0  0  0  0999 V2000
   42.7657   27.6364  321.4005 C   0  0  0  0  0
   43.4147   27.2052  320.1249 C   0  0  0  0  0
   44.1761   26.0672  319.9358 C   0  0  0  0  0
   43.9701   27.0607  318.0557 C   0  0  0  0  0
   42.4922   29.0038  318.6632 C   0  0  0  0  0
   42.5241   30.1008  319.5357 C   0  0  0  0  0
   41.7525   31.2355  319.2729 C   0  0  0  0  0
   40.9347   31.2868  318.1331 C   0  0  0  0  0
   40.8969   30.1911  317.2658 C   0  0  0  0  0
   41.6680   29.0561  317.5292 C   0  0  0  0  0
   40.1281   33.5624  318.6703 C   0  0  0  0  0
   39.2134   34.5786  318.0852 C   0  0  0  0  0
   39.7091   35.5336  317.1912 C   0  0  0  0  0
   38.8449   36.4742  316.6221 C   0  0  0  0  0
   37.4837   36.4565  316.9418 C   0  0  0  0  0
   36.9860   35.4966  317.8286 C   0  0  0  0  0
   37.8500   34.5560  318.3980 C   0  0  0  0  0
   44.1937   27.3927  316.6318 C   0  0  0  0  0
   44.1098   26.4149  315.6165 C   0  0  0  0  0
   44.3598   26.7694  314.2869 C   0  0  0  0  0
   44.7027   28.0819  313.9572 C   0  0  0  0  0
   44.7962   29.0505  314.9571 C   0  0  0  0  0
   44.5462   28.7059  316.2867 C   0  0  0  0  0
   44.5613   25.0682  320.9453 C   0  0  0  0  0
   44.5475   22.0427  321.6370 C   0  0  0  0  0
   44.6145   20.7936  320.7555 C   0  0  0  0  0
   45.8700   19.9800  321.0766 C   0  0  0  0  0
   47.0631   20.8595  321.4619 C   0  0  0  0  0
   46.8972   22.2738  320.9105 C   0  0  0  0  0
   44.5305   25.9779  318.6389 N   0  0  0  0  0
   43.2828   27.8318  318.9372 N   0  0  0  0  0
   45.3433   23.9372  320.5536 N   0  0  0  0  0
   45.7102   22.9392  321.4688 N   0  0  0  0  0
   40.1538   32.4078  317.8410 O   0  0  0  0  0
   44.2109   25.2054  322.1483 O   0  0  0  0  0
   45.0134   28.5124  312.2898 Cl  0  0  0  0  0
   43.6442   24.7527  315.9502 Cl  0  0  0  0  0
  1  2  1  0  0  0
  3 30  1  0  0  0
  3 24  1  0  0  0
  4 31  1  0  0  0
  4 18  1  0  0  0
  6  7  1  0  0  0
  8  9  1  0  0  0
  8 34  1  0  0  0
 10  5  1  0  0  0
 11 34  1  0  0  0
 11 12  1  0  0  0
 13 14  1  0  0  0
 15 16  1  0  0  0
 17 12  1  0  0  0
 19 20  1  0  0  0
 19 37  1  0  0  0
 21 22  1  0  0  0
 21 36  1  0  0  0
 23 18  1  0  0  0
 24 32  1  0  0  0
 25 33  1  0  0  0
 25 26  1  0  0  0
 26 27  1  0  0  0
 27 28  1  0  0  0
 28 29  1  0  0  0
 29 33  1  0  0  0
 31  5  1  0  0  0
 31  2  1  0  0  0
 32 33  1  0  0  0
  2  3  2  0  0  0
  4 30  2  0  0  0
  5  6  2  0  0  0
  7  8  2  0  0  0
  9 10  2  0  0  0
 12 13  2  0  0  0
 14 15  2  0  0  0
 16 17  2  0  0  0
 18 19  2  0  0  0
 20 21  2  0  0  0
 22 23  2  0  0  0
 24 35  2  0  0  0
M  END
> <rmsd>
0.331646502

$$$$
CHEMBL4086535_5TGZ


 37 40  0  0  0  0  0  0  0  0999 V2000
   42.6231   27.4384  321.2942 C   0  0  0  0  0
   43.2427   27.0440  319.9924 C   0  0  0  0  0
   44.0442   25.9393  319.7700 C   0  0  0  0  0
   43.9373   27.0689  317.9635 C   0  0  0  0  0
   42.5393   29.0416  318.6629 C   0  0  0  0  0
   41.3082   29.3164  319.2759 C   0  0  0  0  0
   40.6830   30.5515  319.0882 C   0  0  0  0  0
   41.2826   31.5331  318.2841 C   0  0  0  0  0
   42.5101   31.2628  317.6730 C   0  0  0  0  0
   43.1350   30.0275  317.8616 C   0  0  0  0  0
   39.4577   33.1702  318.6890 C   0  0  0  0  0
   39.6850   33.5435  320.1479 C   0  0  0  0  0
   40.5354   34.8031  320.2711 C   0  0  0  0  0
   39.7199   36.0754  320.0690 C   0  0  0  0  0
   44.1496   27.4433  316.5539 C   0  0  0  0  0
   43.0785   27.5825  315.6453 C   0  0  0  0  0
   43.3368   27.9418  314.3189 C   0  0  0  0  0
   44.6476   28.1568  313.8878 C   0  0  0  0  0
   45.7107   27.9962  314.7782 C   0  0  0  0  0
   45.4620   27.6371  316.1048 C   0  0  0  0  0
   44.4100   24.8892  320.7342 C   0  0  0  0  0
   44.5363   21.8146  321.1864 C   0  0  0  0  0
   44.8054   20.6801  322.1831 C   0  0  0  0  0
   46.2902   20.5567  322.5355 C   0  0  0  0  0
   47.1671   20.8173  321.3121 C   0  0  0  0  0
   46.8220   22.1520  320.6279 C   0  0  0  0  0
   44.4839   25.9547  318.4962 N   0  0  0  0  0
   43.1813   27.7640  318.8519 N   0  0  0  0  0
   45.2726   23.8253  320.3237 N   0  0  0  0  0
   45.6295   22.7876  321.1968 N   0  0  0  0  0
   40.6814   32.7788  318.0734 O   0  0  0  0  0
   43.9702   24.9225  321.9149 O   0  0  0  0  0
   39.2192   36.1278  318.7809 F   0  0  0  0  0
   38.6741   36.1183  320.9734 F   0  0  0  0  0
   40.5382   37.1690  320.2762 F   0  0  0  0  0
   44.9585   28.6089  312.2261 Cl  0  0  0  0  0
   41.4139   27.2533  316.1049 Cl  0  0  0  0  0
  1  2  1  0  0  0
  3 27  1  0  0  0
  3 21  1  0  0  0
  4 28  1  0  0  0
  4 15  1  0  0  0
  6  7  1  0  0  0
  8  9  1  0  0  0
  8 31  1  0  0  0
 10  5  1  0  0  0
 11 31  1  0  0  0
 11 12  1  0  0  0
 12 13  1  0  0  0
 13 14  1  0  0  0
 14 33  1  0  0  0
 14 34  1  0  0  0
 14 35  1  0  0  0
 16 17  1  0  0  0
 16 37  1  0  0  0
 18 19  1  0  0  0
 18 36  1  0  0  0
 20 15  1  0  0  0
 21 29  1  0  0  0
 22 30  1  0  0  0
 22 23  1  0  0  0
 23 24  1  0  0  0
 24 25  1  0  0  0
 25 26  1  0  0  0
 26 30  1  0  0  0
 28  5  1  0  0  0
 28  2  1  0  0  0
 29 30  1  0  0  0
  2  3  2  0  0  0
  4 27  2  0  0  0
  5  6  2  0  0  0
  7  8  2  0  0  0
  9 10  2  0  0  0
 15 16  2  0  0  0
 17 18  2  0  0  0
 19 20  2  0  0  0
 21 32  2  0  0  0
M  END
> <rmsd>
0.264526874

$$$$
CHEMBL494300_5TGZ


 34 37  0  0  0  0  0  0  0  0999 V2000
   39.1492   33.3936  314.9185 C   0  0  0  0  0
   39.5044   34.8641  314.8054 C   0  0  0  0  0
   41.0033   35.0692  314.9679 C   0  0  0  0  0
   41.3948   35.1581  316.4360 C   0  0  0  0  0
   41.5606   33.8201  317.0109 C   0  0  0  0  0
   41.6950   32.7188  317.4821 C   0  0  0  0  0
   41.8533   31.4061  318.0384 C   0  0  0  0  0
   41.0002   30.8217  318.9617 C   0  0  0  0  0
   41.4032   29.5287  319.3244 C   0  0  0  0  0
   42.5602   29.1089  318.6727 C   0  0  0  0  0
   43.2398   27.8130  318.8928 C   0  0  0  0  0
   43.2242   27.0751  320.0649 C   0  0  0  0  0
   42.5143   27.4029  321.3361 C   0  0  0  0  0
   44.0636   25.9994  319.8227 C   0  0  0  0  0
   44.4113   24.9107  320.7487 C   0  0  0  0  0
   45.6703   22.7536  321.1638 C   0  0  0  0  0
   44.5019   21.7735  321.2709 C   0  0  0  0  0
   44.8341   20.6095  322.2147 C   0  0  0  0  0
   46.3293   20.2664  322.2633 C   0  0  0  0  0
   47.0118   20.5751  320.9340 C   0  0  0  0  0
   46.9197   22.0689  320.5926 C   0  0  0  0  0
   44.2743   27.5124  316.6338 C   0  0  0  0  0
   43.1799   27.6526  315.7673 C   0  0  0  0  0
   43.3794   27.9511  314.4177 C   0  0  0  0  0
   44.6754   28.1052  313.9217 C   0  0  0  0  0
   45.7722   27.9578  314.7740 C   0  0  0  0  0
   45.5803   27.6566  316.1259 C   0  0  0  0  0
   43.9277   24.8846  321.9129 O   0  0  0  0  0
   45.3063   23.8812  320.3195 N   0  0  0  0  0
   44.5446   26.0829  318.5670 N   0  0  0  0  0
   44.0499   27.1789  318.0107 N   0  0  0  0  0
   44.9260   28.4819  312.2313 Cl  0  0  0  0  0
   46.9911   27.5104  317.1611 Cl  0  0  0  0  0
   43.0997   30.3486  317.6674 S   0  0  0  0  0
  1  2  1  0  0  0
  2  3  1  0  0  0
  3  4  1  0  0  0
  4  5  1  0  0  0
  7  6  1  0  0  0
  7 34  1  0  0  0
  8  9  1  0  0  0
 10 11  1  0  0  0
 10 34  1  0  0  0
 12 14  1  0  0  0
 13 12  1  0  0  0
 14 15  1  0  0  0
 15 29  1  0  0  0
 16 29  1  0  0  0
 16 17  1  0  0  0
 17 18  1  0  0  0
 18 19  1  0  0  0
 19 20  1  0  0  0
 20 21  1  0  0  0
 21 16  1  0  0  0
 23 24  1  0  0  0
 25 32  1  0  0  0
 25 26  1  0  0  0
 27 33  1  0  0  0
 27 22  1  0  0  0
 31 30  1  0  0  0
 31 22  1  0  0  0
 31 11  1  0  0  0
  7  8  2  0  0  0
  9 10  2  0  0  0
 11 12  2  0  0  0
 14 30  2  0  0  0
 15 28  2  0  0  0
 22 23  2  0  0  0
 24 25  2  0  0  0
 26 27  2  0  0  0
  5  6  3  0  0  0
M  END
> <rmsd>
0.33764261

$$$$
CHEMBL2296780_5TGZ


 34 38  0  0  0  0  0  0  0  0999 V2000
   45.7321   23.2113  318.9200 O   0  0  0  0  0
   39.9743   32.4314  317.3072 O   0  0  0  0  0
   40.2844   32.7742  319.5238 O   0  0  0  0  0
   45.0396   24.0235  319.5909 C   0  0  0  0  0
   44.6333   21.4139  321.0101 C   0  0  0  0  0
   45.0429   20.1604  321.7790 C   0  0  0  0  0
   46.5640   20.0866  321.8630 C   0  0  0  0  0
   47.1209   21.3678  322.4755 C   0  0  0  0  0
   46.6272   22.5723  321.6784 C   0  0  0  0  0
   44.5431   25.2509  318.9428 C   0  0  0  0  0
   44.3746   27.3235  316.0929 C   0  0  0  0  0
   43.8204   26.6991  314.9682 C   0  0  0  0  0
   43.9516   27.2765  313.7030 C   0  0  0  0  0
   44.6460   28.4787  313.5529 C   0  0  0  0  0
   45.2224   29.0966  314.6650 C   0  0  0  0  0
   45.0957   28.5249  315.9345 C   0  0  0  0  0
   43.6104   27.2006  318.4821 C   0  0  0  0  0
   43.8057   26.2787  319.5189 C   0  0  0  0  0
   43.4608   26.3607  320.9827 C   0  0  0  0  0
   42.4860   27.4567  321.3573 C   0  0  0  0  0
   43.0840   28.8002  321.0086 C   0  0  0  0  0
   42.5706   29.2157  319.6774 C   0  0  0  0  0
   41.8116   30.3896  319.6223 C   0  0  0  0  0
   41.2525   30.8294  318.4185 C   0  0  0  0  0
   41.4500   30.0710  317.2606 C   0  0  0  0  0
   42.2084   28.9015  317.3084 C   0  0  0  0  0
   42.7956   28.4575  318.5040 C   0  0  0  0  0
   44.7360   23.7489  320.9691 N   0  0  0  0  0
   45.1619   22.6070  321.6776 N   0  0  0  0  0
   44.7815   25.5345  317.6508 N   0  0  0  0  0
   44.2297   26.7043  317.3781 N   0  0  0  0  0
   40.4786   32.0359  318.3789 N   0  0  0  0  0
   44.8079   29.2034  311.9683 Cl  0  0  0  0  0
   45.8858   29.3134  317.2908 Cl  0  0  0  0  0
  4 28  1  0  0  0
  4 10  1  0  0  0
  5 29  1  0  0  0
  5  6  1  0  0  0
  6  7  1  0  0  0
  7  8  1  0  0  0
  8  9  1  0  0  0
  9 29  1  0  0  0
 12 13  1  0  0  0
 14 33  1  0  0  0
 14 15  1  0  0  0
 16 34  1  0  0  0
 16 11  1  0  0  0
 18 10  1  0  0  0
 19 18  1  0  0  0
 19 20  1  0  0  0
 20 21  1  0  0  0
 21 22  1  0  0  0
 23 24  1  0  0  0
 24 32  1  0  0  0
 25 26  1  0  0  0
 27 22  1  0  0  0
 27 17  1  0  0  0
 28 29  1  0  0  0
 31 30  1  0  0  0
 31 11  1  0  0  0
 31 17  1  0  0  0
 32  3  1  0  0  0
  4  1  2  0  0  0
 10 30  2  0  0  0
 11 12  2  0  0  0
 13 14  2  0  0  0
 15 16  2  0  0  0
 17 18  2  0  0  0
 22 23  2  0  0  0
 24 25  2  0  0  0
 26 27  2  0  0  0
 32  2  2  0  0  0
M  CHG  2  32   1   3  -1
M  END
> <rmsd>
0.41389364

$$$$
CHEMBL4065097_5TGZ


 36 39  0  0  0  0  0  0  0  0999 V2000
   41.7184   33.7489  315.9094 O   0  0  0  0  0
   42.5734   34.5362  318.0704 O   0  0  0  0  0
   40.6371   32.7539  318.0897 O   0  0  0  0  0
   43.8917   24.9278  321.9357 O   0  0  0  0  0
   41.3437   34.1083  317.3194 S   0  0  0  0  0
   41.3038   31.5388  318.2722 C   0  0  0  0  0
   40.6341   30.4910  318.9110 C   0  0  0  0  0
   41.2695   29.2618  319.1069 C   0  0  0  0  0
   42.5846   29.0638  318.6631 C   0  0  0  0  0
   43.2479   27.0669  320.0030 C   0  0  0  0  0
   44.0762   25.9768  319.8133 C   0  0  0  0  0
   44.0631   27.1340  318.0175 C   0  0  0  0  0
   44.2997   27.5036  316.6050 C   0  0  0  0  0
   45.5858   27.4459  316.0249 C   0  0  0  0  0
   45.7563   27.7766  314.6767 C   0  0  0  0  0
   44.6614   28.1531  313.8967 C   0  0  0  0  0
   43.3867   28.2035  314.4619 C   0  0  0  0  0
   43.2078   27.8772  315.8075 C   0  0  0  0  0
   44.3994   24.9172  320.7820 C   0  0  0  0  0
   44.5425   21.8376  321.1957 C   0  0  0  0  0
   44.8357   20.6609  322.1234 C   0  0  0  0  0
   46.1570   20.0130  321.7207 C   0  0  0  0  0
   47.2678   21.0580  321.6803 C   0  0  0  0  0
   46.8468   22.2143  320.7760 C   0  0  0  0  0
   42.5411   27.4350  321.2675 C   0  0  0  0  0
   43.2581   30.1184  318.0295 C   0  0  0  0  0
   42.6222   31.3463  317.8333 C   0  0  0  0  0
   40.1717   35.4459  317.2874 C   0  0  0  0  0
   39.7341   35.7818  318.6984 C   0  0  0  0  0
   38.7363   36.9196  318.6591 C   0  0  0  0  0
   43.2410   27.7988  318.8695 N   0  0  0  0  0
   44.5842   26.0138  318.5656 N   0  0  0  0  0
   45.2988   23.8709  320.4074 N   0  0  0  0  0
   45.6200   22.8254  321.2851 N   0  0  0  0  0
   44.8880   28.5641  312.2109 Cl  0  0  0  0  0
   47.0163   27.0201  316.9542 Cl  0  0  0  0  0
  5  3  1  0  0  0
  5 28  1  0  0  0
  6  3  1  0  0  0
  7  8  1  0  0  0
  9 31  1  0  0  0
  9 26  1  0  0  0
 11 32  1  0  0  0
 11 19  1  0  0  0
 12 13  1  0  0  0
 12 31  1  0  0  0
 14 15  1  0  0  0
 14 36  1  0  0  0
 16 17  1  0  0  0
 16 35  1  0  0  0
 18 13  1  0  0  0
 19 33  1  0  0  0
 20 34  1  0  0  0
 20 21  1  0  0  0
 21 22  1  0  0  0
 22 23  1  0  0  0
 23 24  1  0  0  0
 24 34  1  0  0  0
 25 10  1  0  0  0
 27  6  1  0  0  0
 28 29  1  0  0  0
 29 30  1  0  0  0
 31 10  1  0  0  0
 33 34  1  0  0  0
  5  1  2  0  0  0
  5  2  2  0  0  0
  6  7  2  0  0  0
  8  9  2  0  0  0
 10 11  2  0  0  0
 12 32  2  0  0  0
 13 14  2  0  0  0
 15 16  2  0  0  0
 17 18  2  0  0  0
 19  4  2  0  0  0
 26 27  2  0  0  0
M  END
> <rmsd>
0.294269174

$$$$
CHEMBL4062749_6KQI


 40 43  0  0  0  0  0  0  0  0999 V2000
   42.6536   27.4346  321.3147 C   0  0  0  0  0
   43.3330   27.0718  320.0338 C   0  0  0  0  0
   43.9990   25.8896  319.7676 C   0  0  0  0  0
   43.9754   27.0653  317.9872 C   0  0  0  0  0
   42.6245   29.0643  318.7019 C   0  0  0  0  0
   42.6213   30.0439  319.7052 C   0  0  0  0  0
   41.9657   31.2616  319.5062 C   0  0  0  0  0
   41.3009   31.5176  318.3039 C   0  0  0  0  0
   41.2976   30.5392  317.2987 C   0  0  0  0  0
   41.9541   29.3229  317.4974 C   0  0  0  0  0
   38.3746   32.0430  316.5791 C   0  0  0  0  0
   37.5596   32.3789  315.3391 C   0  0  0  0  0
   36.2237   33.0134  315.7029 C   0  0  0  0  0
   44.2358   27.4669  316.5930 C   0  0  0  0  0
   44.9430   28.6450  316.2700 C   0  0  0  0  0
   45.1558   28.9803  314.9290 C   0  0  0  0  0
   44.6808   28.1517  313.9099 C   0  0  0  0  0
   44.0048   26.9721  314.2270 C   0  0  0  0  0
   43.7860   26.6308  315.5634 C   0  0  0  0  0
   44.2354   24.7672  320.6898 C   0  0  0  0  0
   45.1987   22.4554  321.0723 C   0  0  0  0  0
   46.3024   22.8049  322.0732 C   0  0  0  0  0
   46.6210   21.6003  322.9522 C   0  0  0  0  0
   47.0657   20.4270  322.0857 C   0  0  0  0  0
   45.9639   20.0637  321.0945 C   0  0  0  0  0
   45.6264   21.2630  320.2115 C   0  0  0  0  0
   44.4009   25.8825  318.4812 N   0  0  0  0  0
   43.3099   27.8123  318.9052 N   0  0  0  0  0
   44.9248   23.6057  320.2214 N   0  0  0  0  0
   40.6568   32.7473  318.1373 O   0  0  0  0  0
   40.6350   33.0626  315.5270 O   0  0  0  0  0
   39.2553   34.5678  316.8826 O   0  0  0  0  0
   43.8249   24.8215  321.8808 O   0  0  0  0  0
   44.5950   20.9131  319.3390 O   0  0  0  0  0
   39.7559   33.1582  316.7426 S   0  0  0  0  0
   36.4259   34.1976  316.3880 F   0  0  0  0  0
   35.4855   32.1466  316.4886 F   0  0  0  0  0
   35.5217   33.2788  314.5431 F   0  0  0  0  0
   44.9504   28.5823  312.2350 Cl  0  0  0  0  0
   45.6363   29.6878  317.5034 Cl  0  0  0  0  0
  1  2  1  0  0  0
  3 27  1  0  0  0
  3 20  1  0  0  0
  4 28  1  0  0  0
  4 14  1  0  0  0
  6  7  1  0  0  0
  8  9  1  0  0  0
  8 30  1  0  0  0
 10  5  1  0  0  0
 11 12  1  0  0  0
 12 13  1  0  0  0
 13 36  1  0  0  0
 13 37  1  0  0  0
 13 38  1  0  0  0
 15 16  1  0  0  0
 15 40  1  0  0  0
 17 18  1  0  0  0
 17 39  1  0  0  0
 19 14  1  0  0  0
 20 29  1  0  0  0
 21 29  1  0  0  0
 21 22  1  0  0  0
 22 23  1  0  0  0
 23 24  1  0  0  0
 24 25  1  0  0  0
 25 26  1  0  0  0
 26 34  1  0  0  0
 26 21  1  0  0  0
 28  5  1  0  0  0
 28  2  1  0  0  0
 35 30  1  0  0  0
 35 11  1  0  0  0
  2  3  2  0  0  0
  4 27  2  0  0  0
  5  6  2  0  0  0
  7  8  2  0  0  0
  9 10  2  0  0  0
 14 15  2  0  0  0
 16 17  2  0  0  0
 18 19  2  0  0  0
 20 33  2  0  0  0
 35 31  2  0  0  0
 35 32  2  0  0  0
M  END
> <rmsd>
0.294901818

$$$$
CHEMBL4093165_6KQI


 44 47  0  0  0  0  0  0  0  0999 V2000
   42.6117   27.3500  321.2740 C   0  0  0  0  0
   43.2172   26.9683  319.9619 C   0  0  0  0  0
   43.9781   25.8407  319.7103 C   0  0  0  0  0
   43.9147   27.0212  317.9345 C   0  0  0  0  0
   42.5827   29.0224  318.6817 C   0  0  0  0  0
   43.1940   29.9966  317.8780 C   0  0  0  0  0
   42.6084   31.2547  317.7157 C   0  0  0  0  0
   41.4046   31.5604  318.3558 C   0  0  0  0  0
   40.7921   30.5932  319.1661 C   0  0  0  0  0
   41.3773   29.3349  319.3275 C   0  0  0  0  0
   39.0083   34.9908  318.3949 C   0  0  0  0  0
   40.1900   35.9081  318.6613 C   0  0  0  0  0
   39.8983   37.3296  318.2057 C   0  0  0  0  0
   44.1320   27.4169  316.5316 C   0  0  0  0  0
   43.0609   27.6027  315.6314 C   0  0  0  0  0
   43.3227   27.9797  314.3105 C   0  0  0  0  0
   44.6369   28.1673  313.8772 C   0  0  0  0  0
   45.6997   27.9596  314.7587 C   0  0  0  0  0
   45.4471   27.5821  316.0795 C   0  0  0  0  0
   44.3019   24.7506  320.6449 C   0  0  0  0  0
   45.5647   22.5404  320.9647 C   0  0  0  0  0
   45.0224   22.2588  322.2273 C   0  0  0  0  0
   45.4164   21.1147  322.9254 C   0  0  0  0  0
   46.3586   20.2349  322.3685 C   0  0  0  0  0
   46.8955   20.5157  321.1082 C   0  0  0  0  0
   46.5006   21.6608  320.4107 C   0  0  0  0  0
   46.3122   18.6892  324.3291 C   0  0  0  0  0
   44.4203   25.8744  318.4379 N   0  0  0  0  0
   43.1835   27.7203  318.8406 N   0  0  0  0  0
   45.1814   23.7014  320.2153 N   0  0  0  0  0
   40.8438   32.8269  318.1675 O   0  0  0  0  0
   39.5697   33.3179  320.4166 O   0  0  0  0  0
   38.2714   32.4207  318.5382 O   0  0  0  0  0
   43.8143   24.7472  321.8068 O   0  0  0  0  0
   46.7781   19.0790  323.0392 O   0  0  0  0  0
   39.3967   33.3383  318.9235 S   0  0  0  0  0
   38.8102   37.8353  318.8941 F   0  0  0  0  0
   39.6359   37.3484  316.8476 F   0  0  0  0  0
   41.0020   38.1195  318.4629 F   0  0  0  0  0
   44.9444   18.4831  324.2977 F   0  0  0  0  0
   46.9357   17.5125  324.6975 F   0  0  0  0  0
   46.6152   19.6680  325.2587 F   0  0  0  0  0
   44.9521   28.6425  312.2228 Cl  0  0  0  0  0
   41.3900   27.3118  316.0938 Cl  0  0  0  0  0
  1  2  1  0  0  0
  3 28  1  0  0  0
  3 20  1  0  0  0
  4 29  1  0  0  0
  4 14  1  0  0  0
  6  7  1  0  0  0
  8  9  1  0  0  0
  8 31  1  0  0  0
 10  5  1  0  0  0
 11 12  1  0  0  0
 12 13  1  0  0  0
 13 37  1  0  0  0
 13 38  1  0  0  0
 13 39  1  0  0  0
 15 16  1  0  0  0
 15 44  1  0  0  0
 17 18  1  0  0  0
 17 43  1  0  0  0
 19 14  1  0  0  0
 20 30  1  0  0  0
 22 23  1  0  0  0
 24 25  1  0  0  0
 24 35  1  0  0  0
 26 21  1  0  0  0
 27 35  1  0  0  0
 27 40  1  0  0  0
 27 41  1  0  0  0
 27 42  1  0  0  0
 29  5  1  0  0  0
 29  2  1  0  0  0
 30 21  1  0  0  0
 36 31  1  0  0  0
 36 11  1  0  0  0
  2  3  2  0  0  0
  4 28  2  0  0  0
  5  6  2  0  0  0
  7  8  2  0  0  0
  9 10  2  0  0  0
 14 15  2  0  0  0
 16 17  2  0  0  0
 18 19  2  0  0  0
 20 34  2  0  0  0
 21 22  2  0  0  0
 23 24  2  0  0  0
 25 26  2  0  0  0
 36 32  2  0  0  0
 36 33  2  0  0  0
M  END
> <rmsd>
0.290832788

$$$$
CHEMBL4066563_5TGZ


 43 46  0  0  0  0  0  0  0  0999 V2000
   42.7111   27.4072  321.3058 C   0  0  0  0  0
   43.3878   27.0625  320.0184 C   0  0  0  0  0
   44.1019   25.9081  319.7526 C   0  0  0  0  0
   44.0163   27.0736  317.9678 C   0  0  0  0  0
   42.5981   29.0244  318.6845 C   0  0  0  0  0
   42.5576   30.0018  319.6896 C   0  0  0  0  0
   41.8624   31.1974  319.4892 C   0  0  0  0  0
   41.1970   31.4337  318.2830 C   0  0  0  0  0
   41.2305   30.4574  317.2766 C   0  0  0  0  0
   41.9250   29.2626  317.4771 C   0  0  0  0  0
   38.9518   34.6724  316.8617 C   0  0  0  0  0
   40.0469   35.6944  317.1235 C   0  0  0  0  0
   39.9668   36.2481  318.5392 C   0  0  0  0  0
   44.2574   27.4844  316.5731 C   0  0  0  0  0
   44.9367   28.6787  316.2502 C   0  0  0  0  0
   45.1347   29.0229  314.9095 C   0  0  0  0  0
   44.6703   28.1888  313.8902 C   0  0  0  0  0
   44.0189   26.9953  314.2068 C   0  0  0  0  0
   43.8169   26.6436  315.5433 C   0  0  0  0  0
   44.4016   24.8050  320.6804 C   0  0  0  0  0
   45.5376   22.5226  320.9608 C   0  0  0  0  0
   46.3079   21.5346  320.3434 C   0  0  0  0  0
   46.3212   20.2284  322.3320 C   0  0  0  0  0
   45.5342   21.1864  322.9815 C   0  0  0  0  0
   45.1477   22.3364  322.2928 C   0  0  0  0  0
   46.7118   18.9674  323.0412 C   0  0  0  0  0
   44.4954   25.9124  318.4634 N   0  0  0  0  0
   43.3264   27.7964  318.8870 N   0  0  0  0  0
   45.1652   23.6858  320.2096 N   0  0  0  0  0
   46.6758   20.4200  321.0307 N   0  0  0  0  0
   40.5152   32.6420  318.1139 O   0  0  0  0  0
   40.5937   33.0315  315.5131 O   0  0  0  0  0
   38.5550   32.0534  316.4650 O   0  0  0  0  0
   43.9911   24.8499  321.8712 O   0  0  0  0  0
   39.6587   33.0480  316.6898 S   0  0  0  0  0
   38.7500   36.8764  318.7336 F   0  0  0  0  0
   40.9823   37.1669  318.7197 F   0  0  0  0  0
   40.1124   35.2288  319.4623 F   0  0  0  0  0
   47.7776   18.3643  322.3970 F   0  0  0  0  0
   47.0813   19.2487  324.3448 F   0  0  0  0  0
   45.6389   18.0954  323.0509 F   0  0  0  0  0
   44.9216   28.6312  312.2160 Cl  0  0  0  0  0
   45.6106   29.7339  317.4842 Cl  0  0  0  0  0
  1  2  1  0  0  0
  3 27  1  0  0  0
  3 20  1  0  0  0
  4 28  1  0  0  0
  4 14  1  0  0  0
  6  7  1  0  0  0
  8  9  1  0  0  0
  8 31  1  0  0  0
 10  5  1  0  0  0
 11 12  1  0  0  0
 12 13  1  0  0  0
 13 36  1  0  0  0
 13 37  1  0  0  0
 13 38  1  0  0  0
 15 16  1  0  0  0
 15 43  1  0  0  0
 17 18  1  0  0  0
 17 42  1  0  0  0
 19 14  1  0  0  0
 20 29  1  0  0  0
 22 30  1  0  0  0
 23 24  1  0  0  0
 25 21  1  0  0  0
 26 23  1  0  0  0
 26 39  1  0  0  0
 26 40  1  0  0  0
 26 41  1  0  0  0
 28  5  1  0  0  0
 28  2  1  0  0  0
 29 21  1  0  0  0
 35 31  1  0  0  0
 35 11  1  0  0  0
  2  3  2  0  0  0
  4 27  2  0  0  0
  5  6  2  0  0  0
  7  8  2  0  0  0
  9 10  2  0  0  0
 14 15  2  0  0  0
 16 17  2  0  0  0
 18 19  2  0  0  0
 20 34  2  0  0  0
 21 22  2  0  0  0
 23 30  2  0  0  0
 24 25  2  0  0  0
 35 32  2  0  0  0
 35 33  2  0  0  0
M  END
> <rmsd>
0.227374434

$$$$
CHEMBL2030768_5TGZ


 33 36  0  0  0  0  0  0  0  0999 V2000
   48.9759   23.3173  323.8899 C   0  0  0  0  0
   48.4787   21.9726  323.4792 C   0  0  0  0  0
   47.1640   20.4953  321.9319 C   0  0  0  0  0
   45.6655   20.4455  321.6372 C   0  0  0  0  0
   45.2753   21.5829  320.6978 C   0  0  0  0  0
   45.6401   22.9261  321.3253 C   0  0  0  0  0
   44.3858   25.0541  320.8242 C   0  0  0  0  0
   44.0110   26.0974  319.8572 C   0  0  0  0  0
   44.1869   27.4904  316.6203 C   0  0  0  0  0
   43.4513   26.8627  315.6069 C   0  0  0  0  0
   43.6917   27.1777  314.2678 C   0  0  0  0  0
   44.6731   28.1168  313.9361 C   0  0  0  0  0
   45.4195   28.7348  314.9420 C   0  0  0  0  0
   45.1827   28.4240  316.2837 C   0  0  0  0  0
   43.1991   27.9012  318.8810 C   0  0  0  0  0
   42.4831   29.1769  318.5971 C   0  0  0  0  0
   42.0516   30.0010  319.6508 C   0  0  0  0  0
   41.3635   31.1902  319.3940 C   0  0  0  0  0
   41.0976   31.5702  318.0758 C   0  0  0  0  0
   41.5303   30.7683  317.0189 C   0  0  0  0  0
   42.2156   29.5787  317.2799 C   0  0  0  0  0
   43.2466   27.2301  320.0969 C   0  0  0  0  0
   42.5932   27.6151  321.3829 C   0  0  0  0  0
   47.1398   22.9833  321.6024 C   0  0  0  0  0
   48.8969   20.9574  324.0974 O   0  0  0  0  0
   43.9502   25.0982  322.0071 O   0  0  0  0  0
   47.5392   21.8279  322.4039 N   0  0  0  0  0
   45.2692   24.0027  320.4231 N   0  0  0  0  0
   44.4048   26.0877  318.5699 N   0  0  0  0  0
   43.9134   27.1703  317.9868 N   0  0  0  0  0
   44.9651   28.5178  312.2593 Cl  0  0  0  0  0
   46.1503   29.2102  317.5205 Cl  0  0  0  0  0
   40.2389   33.0616  317.7539 Cl  0  0  0  0  0
  1  2  1  0  0  0
  2 27  1  0  0  0
  3 27  1  0  0  0
  3  4  1  0  0  0
  4  5  1  0  0  0
  5  6  1  0  0  0
  6 28  1  0  0  0
  6 24  1  0  0  0
  7  8  1  0  0  0
 10 11  1  0  0  0
 12 31  1  0  0  0
 12 13  1  0  0  0
 14 32  1  0  0  0
 14  9  1  0  0  0
 15 16  1  0  0  0
 17 18  1  0  0  0
 19 33  1  0  0  0
 19 20  1  0  0  0
 21 16  1  0  0  0
 22  8  1  0  0  0
 23 22  1  0  0  0
 24 27  1  0  0  0
 28  7  1  0  0  0
 30 29  1  0  0  0
 30  9  1  0  0  0
 30 15  1  0  0  0
  2 25  2  0  0  0
  7 26  2  0  0  0
  8 29  2  0  0  0
  9 10  2  0  0  0
 11 12  2  0  0  0
 13 14  2  0  0  0
 15 22  2  0  0  0
 16 17  2  0  0  0
 18 19  2  0  0  0
 20 21  2  0  0  0
M  END
> <rmsd>
0.363949716

$$$$
CHEMBL4471116_5TGZ


 33 35  0  0  0  0  0  0  0  0999 V2000
   44.1231   27.0650  317.9807 N   0  0  0  0  0
   44.6828   25.9840  318.5022 N   0  0  0  0  0
   45.5982   23.7933  320.1954 N   0  0  0  0  0
   44.3327   25.9207  319.8015 C   0  0  0  0  0
   43.5202   27.0001  320.1119 C   0  0  0  0  0
   43.3936   27.7085  318.9262 C   0  0  0  0  0
   42.5546   28.9126  318.7056 C   0  0  0  0  0
   41.9789   29.1638  317.4512 C   0  0  0  0  0
   41.1883   30.2975  317.2456 C   0  0  0  0  0
   40.9629   31.1902  318.2958 C   0  0  0  0  0
   41.5255   30.9476  319.5511 C   0  0  0  0  0
   42.3164   29.8134  319.7545 C   0  0  0  0  0
   42.8558   27.2835  321.4184 C   0  0  0  0  0
   44.7646   24.8397  320.7013 C   0  0  0  0  0
   46.0416   22.6759  321.0153 C   0  0  0  0  0
   44.8899   21.7195  321.2562 C   0  0  0  0  0
   45.3541   20.5841  322.1479 C   0  0  0  0  0
   44.2049   19.6291  322.4335 C   0  0  0  0  0
   43.1956   20.2393  323.3988 C   0  0  0  0  0
   43.6821   20.1726  324.8082 C   0  0  0  0  0
   43.4057   19.2802  327.0836 C   0  0  0  0  0
   44.3234   27.4483  316.6142 C   0  0  0  0  0
   43.8837   26.5940  315.5949 C   0  0  0  0  0
   44.0678   26.9399  314.2541 C   0  0  0  0  0
   44.7005   28.1400  313.9234 C   0  0  0  0  0
   45.1631   28.9876  314.9327 C   0  0  0  0  0
   44.9826   28.6482  316.2769 C   0  0  0  0  0
   39.9738   32.6109  318.0396 Cl  0  0  0  0  0
   45.6371   29.7199  317.5051 Cl  0  0  0  0  0
   44.9288   28.5746  312.2438 Cl  0  0  0  0  0
   44.4073   24.8355  321.9104 O   0  0  0  0  0
   44.6904   20.8437  325.1604 O   0  0  0  0  0
   42.9964   19.3794  325.7279 O   0  0  0  0  0
  1  2  1  0  0  0
  1 22  1  0  0  0
  4  5  1  0  0  0
  4 14  1  0  0  0
  6  7  1  0  0  0
  6  1  1  0  0  0
  8  9  1  0  0  0
 10 11  1  0  0  0
 10 28  1  0  0  0
 12  7  1  0  0  0
 13  5  1  0  0  0
 14  3  1  0  0  0
 15  3  1  0  0  0
 15 16  1  0  0  0
 16 17  1  0  0  0
 17 18  1  0  0  0
 18 19  1  0  0  0
 19 20  1  0  0  0
 20 33  1  0  0  0
 21 33  1  0  0  0
 23 24  1  0  0  0
 25 26  1  0  0  0
 25 30  1  0  0  0
 27 29  1  0  0  0
 27 22  1  0  0  0
  4  2  2  0  0  0
  5  6  2  0  0  0
  7  8  2  0  0  0
  9 10  2  0  0  0
 11 12  2  0  0  0
 14 31  2  0  0  0
 20 32  2  0  0  0
 22 23  2  0  0  0
 24 25  2  0  0  0
 26 27  2  0  0  0
M  END
> <rmsd>
0.404377848

$$$$
CHEMBL4068708_5U09


 43 46  0  0  0  0  0  0  0  0999 V2000
   42.5671   27.2979  321.2287 C   0  0  0  0  0
   43.2476   26.9485  319.9446 C   0  0  0  0  0
   44.0348   25.8367  319.7089 C   0  0  0  0  0
   44.0462   27.0555  317.9541 C   0  0  0  0  0
   42.6436   29.0130  318.6814 C   0  0  0  0  0
   43.3468   30.0636  318.0739 C   0  0  0  0  0
   42.7535   31.3194  317.9270 C   0  0  0  0  0
   41.4486   31.5439  318.3901 C   0  0  0  0  0
   40.7495   30.5000  319.0031 C   0  0  0  0  0
   41.3423   29.2431  319.1497 C   0  0  0  0  0
   40.4461   35.5230  317.5430 C   0  0  0  0  0
   40.0431   35.8443  318.9736 C   0  0  0  0  0
   38.5814   35.5051  319.2314 C   0  0  0  0  0
   44.2827   27.4652  316.5528 C   0  0  0  0  0
   45.5606   27.3824  315.9576 C   0  0  0  0  0
   45.7306   27.7534  314.6199 C   0  0  0  0  0
   44.6425   28.1950  313.8646 C   0  0  0  0  0
   43.3757   28.2705  314.4444 C   0  0  0  0  0
   43.1975   27.9044  315.7798 C   0  0  0  0  0
   44.3288   24.7326  320.6370 C   0  0  0  0  0
   45.5677   22.5306  320.9890 C   0  0  0  0  0
   45.4532   21.2818  323.0106 C   0  0  0  0  0
   46.2968   20.2966  322.4832 C   0  0  0  0  0
   46.7970   20.4658  321.1871 C   0  0  0  0  0
   46.4284   21.5812  320.4337 C   0  0  0  0  0
   46.7268   19.1300  323.3239 C   0  0  0  0  0
   44.5319   25.8993  318.4580 N   0  0  0  0  0
   43.2564   27.7192  318.8370 N   0  0  0  0  0
   45.1920   23.6713  320.2090 N   0  0  0  0  0
   45.1063   22.3614  322.2597 N   0  0  0  0  0
   40.8235   32.7870  318.2563 O   0  0  0  0  0
   41.9034   33.8105  316.0895 O   0  0  0  0  0
   42.8223   34.4980  318.2581 O   0  0  0  0  0
   43.8246   24.7242  321.7921 O   0  0  0  0  0
   41.5652   34.1392  317.5163 S   0  0  0  0  0
   37.7687   36.2452  318.3918 F   0  0  0  0  0
   38.3566   34.1569  319.0205 F   0  0  0  0  0
   38.2736   35.8127  320.5425 F   0  0  0  0  0
   45.7208   18.7762  324.2064 F   0  0  0  0  0
   47.8563   19.4760  324.0417 F   0  0  0  0  0
   47.0162   18.0383  322.5238 F   0  0  0  0  0
   44.8689   28.6573  312.1923 Cl  0  0  0  0  0
   46.9834   26.8742  316.8567 Cl  0  0  0  0  0
  1  2  1  0  0  0
  3 27  1  0  0  0
  3 20  1  0  0  0
  4 28  1  0  0  0
  4 14  1  0  0  0
  6  7  1  0  0  0
  8  9  1  0  0  0
  8 31  1  0  0  0
 10  5  1  0  0  0
 11 12  1  0  0  0
 12 13  1  0  0  0
 13 36  1  0  0  0
 13 37  1  0  0  0
 13 38  1  0  0  0
 15 16  1  0  0  0
 15 43  1  0  0  0
 17 18  1  0  0  0
 17 42  1  0  0  0
 19 14  1  0  0  0
 20 29  1  0  0  0
 22 30  1  0  0  0
 23 24  1  0  0  0
 25 21  1  0  0  0
 26 23  1  0  0  0
 26 39  1  0  0  0
 26 40  1  0  0  0
 26 41  1  0  0  0
 28  5  1  0  0  0
 28  2  1  0  0  0
 29 21  1  0  0  0
 35 31  1  0  0  0
 35 11  1  0  0  0
  2  3  2  0  0  0
  4 27  2  0  0  0
  5  6  2  0  0  0
  7  8  2  0  0  0
  9 10  2  0  0  0
 14 15  2  0  0  0
 16 17  2  0  0  0
 18 19  2  0  0  0
 20 34  2  0  0  0
 21 30  2  0  0  0
 22 23  2  0  0  0
 24 25  2  0  0  0
 35 32  2  0  0  0
 35 33  2  0  0  0
M  END
> <rmsd>
0.308258653

$$$$
CHEMBL4089947_5TGZ


 38 41  0  0  0  0  0  0  0  0999 V2000
   42.7298   27.1961  321.2066 C   0  0  0  0  0
   43.3125   26.8607  319.8715 C   0  0  0  0  0
   44.0867   25.7546  319.5717 C   0  0  0  0  0
   43.9632   26.9823  317.8315 C   0  0  0  0  0
   42.6205   28.9401  318.6673 C   0  0  0  0  0
   41.4094   29.2055  319.3230 C   0  0  0  0  0
   40.8030   30.4597  319.2136 C   0  0  0  0  0
   41.3971   31.4672  318.4486 C   0  0  0  0  0
   42.6102   31.2084  317.7940 C   0  0  0  0  0
   43.2166   29.9553  317.9041 C   0  0  0  0  0
   40.2828   35.4089  317.5927 C   0  0  0  0  0
   40.1069   35.7787  319.0545 C   0  0  0  0  0
   39.1757   36.9696  319.1917 C   0  0  0  0  0
   39.8979   38.2473  318.8075 C   0  0  0  0  0
   38.7107   37.0765  320.6285 C   0  0  0  0  0
   44.1529   27.4292  316.4399 C   0  0  0  0  0
   43.0657   27.6389  315.5647 C   0  0  0  0  0
   43.3026   28.0673  314.2548 C   0  0  0  0  0
   44.6080   28.2817  313.8071 C   0  0  0  0  0
   45.6865   28.0517  314.6632 C   0  0  0  0  0
   45.4589   27.6235  315.9730 C   0  0  0  0  0
   44.4529   24.6473  320.4696 C   0  0  0  0  0
   46.4881   22.9545  321.8854 C   0  0  0  0  0
   46.6423   21.8930  322.9872 C   0  0  0  0  0
   46.3452   20.4933  322.4579 C   0  0  0  0  0
   44.9363   20.4235  321.8617 C   0  0  0  0  0
   44.5271   21.7318  321.1748 C   0  0  0  0  0
   44.4988   25.8308  318.2910 N   0  0  0  0  0
   43.2410   27.6425  318.7730 N   0  0  0  0  0
   45.2895   23.5881  319.9756 N   0  0  0  0  0
   45.7091   22.4755  320.7323 N   0  0  0  0  0
   40.7621   32.7092  318.3579 O   0  0  0  0  0
   41.4932   33.6252  316.0041 O   0  0  0  0  0
   42.7414   34.3997  317.9697 O   0  0  0  0  0
   44.0356   24.6275  321.6590 O   0  0  0  0  0
   41.3833   34.0194  317.4500 S   0  0  0  0  0
   44.8924   28.8209  312.1669 Cl  0  0  0  0  0
   41.4050   27.3160  316.0423 Cl  0  0  0  0  0
  1  2  1  0  0  0
  3 28  1  0  0  0
  3 22  1  0  0  0
  4 29  1  0  0  0
  4 16  1  0  0  0
  6  7  1  0  0  0
  8  9  1  0  0  0
  8 32  1  0  0  0
 10  5  1  0  0  0
 11 12  1  0  0  0
 12 13  1  0  0  0
 13 14  1  0  0  0
 13 15  1  0  0  0
 17 18  1  0  0  0
 17 38  1  0  0  0
 19 20  1  0  0  0
 19 37  1  0  0  0
 21 16  1  0  0  0
 22 30  1  0  0  0
 23 31  1  0  0  0
 23 24  1  0  0  0
 24 25  1  0  0  0
 25 26  1  0  0  0
 26 27  1  0  0  0
 27 31  1  0  0  0
 29  5  1  0  0  0
 29  2  1  0  0  0
 30 31  1  0  0  0
 36 32  1  0  0  0
 36 11  1  0  0  0
  2  3  2  0  0  0
  4 28  2  0  0  0
  5  6  2  0  0  0
  7  8  2  0  0  0
  9 10  2  0  0  0
 16 17  2  0  0  0
 18 19  2  0  0  0
 20 21  2  0  0  0
 22 35  2  0  0  0
 36 33  2  0  0  0
 36 34  2  0  0  0
M  END
> <rmsd>
0.391437441

$$$$
CHEMBL459305_5TGZ


 34 38  0  0  0  0  0  0  0  0999 V2000
   37.9324   34.5158  316.1731 C   0  0  0  0  0
   38.9626   33.8073  315.3185 C   0  0  0  0  0
   39.7154   32.8604  316.1417 C   0  0  0  0  0
   40.3366   32.0796  316.8184 C   0  0  0  0  0
   41.0760   31.1500  317.6233 C   0  0  0  0  0
   41.2793   31.2616  318.9897 C   0  0  0  0  0
   42.0385   30.2036  319.5093 C   0  0  0  0  0
   42.4300   29.2773  318.5455 C   0  0  0  0  0
   43.2114   28.0474  318.8133 C   0  0  0  0  0
   43.2934   27.3804  320.0252 C   0  0  0  0  0
   42.6365   27.7497  321.3137 C   0  0  0  0  0
   44.0653   26.2585  319.7671 C   0  0  0  0  0
   44.4447   25.1981  320.7134 C   0  0  0  0  0
   46.7003   22.3406  320.4680 C   0  0  0  0  0
   46.5104   20.8623  320.7366 C   0  0  0  0  0
   47.3854   20.4343  321.9001 C   0  0  0  0  0
   46.4919   19.6283  322.8130 C   0  0  0  0  0
   45.1088   20.2022  322.6154 C   0  0  0  0  0
   45.0737   20.7162  321.1882 C   0  0  0  0  0
   44.4990   22.1168  321.1615 C   0  0  0  0  0
   44.1737   27.6735  316.5319 C   0  0  0  0  0
   43.6741   26.8376  315.5253 C   0  0  0  0  0
   43.9078   27.1345  314.1805 C   0  0  0  0  0
   44.6503   28.2654  313.8340 C   0  0  0  0  0
   45.1719   29.0922  314.8318 C   0  0  0  0  0
   44.9425   28.8011  316.1799 C   0  0  0  0  0
   44.0712   25.2508  321.9160 O   0  0  0  0  0
   45.2461   24.1038  320.2619 N   0  0  0  0  0
   45.6131   23.0564  321.1193 N   0  0  0  0  0
   44.4358   26.2597  318.4718 N   0  0  0  0  0
   43.9258   27.3414  317.9028 N   0  0  0  0  0
   44.9402   28.6391  312.1491 Cl  0  0  0  0  0
   45.6596   29.8439  317.3977 Cl  0  0  0  0  0
   41.8181   29.7605  317.0515 S   0  0  0  0  0
  1  2  1  0  0  0
  2  3  1  0  0  0
  5  4  1  0  0  0
  5 34  1  0  0  0
  6  7  1  0  0  0
  8  9  1  0  0  0
  8 34  1  0  0  0
 10 12  1  0  0  0
 11 10  1  0  0  0
 12 13  1  0  0  0
 13 28  1  0  0  0
 14 29  1  0  0  0
 15 14  1  0  0  0
 15 16  1  0  0  0
 16 17  1  0  0  0
 17 18  1  0  0  0
 19 18  1  0  0  0
 19 20  1  0  0  0
 19 15  1  0  0  0
 20 29  1  0  0  0
 22 23  1  0  0  0
 24 32  1  0  0  0
 24 25  1  0  0  0
 26 33  1  0  0  0
 26 21  1  0  0  0
 28 29  1  0  0  0
 31 30  1  0  0  0
 31 21  1  0  0  0
 31  9  1  0  0  0
  5  6  2  0  0  0
  7  8  2  0  0  0
  9 10  2  0  0  0
 12 30  2  0  0  0
 13 27  2  0  0  0
 21 22  2  0  0  0
 23 24  2  0  0  0
 25 26  2  0  0  0
  3  4  3  0  0  0
M  END
> <rmsd>
0.48498407

$$$$
CHEMBL518817_5TGZ


 35 39  0  0  0  0  0  0  0  0999 V2000
   36.6235   32.3493  319.6083 C   0  0  0  0  0
   37.5222   32.6014  318.4166 C   0  0  0  0  0
   38.0507   31.2790  317.8941 C   0  0  0  0  0
   38.9734   31.5066  316.7059 C   0  0  0  0  0
   40.3133   32.0868  317.1427 C   0  0  0  0  0
   41.1396   31.0647  317.8487 C   0  0  0  0  0
   41.5460   31.1477  319.1720 C   0  0  0  0  0
   42.3221   30.0503  319.5708 C   0  0  0  0  0
   42.5313   29.1236  318.5529 C   0  0  0  0  0
   43.2663   27.8478  318.6994 C   0  0  0  0  0
   43.3886   27.1085  319.8644 C   0  0  0  0  0
   42.8377   27.4381  321.2119 C   0  0  0  0  0
   44.0739   25.9630  319.4923 C   0  0  0  0  0
   44.4543   24.8305  320.3505 C   0  0  0  0  0
   44.4212   21.9321  321.0888 C   0  0  0  0  0
   44.8392   21.4144  322.4515 C   0  0  0  0  0
   45.1121   19.9220  322.3781 C   0  0  0  0  0
   46.6072   19.7708  322.2127 C   0  0  0  0  0
   47.2050   20.9936  322.8706 C   0  0  0  0  0
   46.1602   22.0907  322.7625 C   0  0  0  0  0
   46.4610   22.9766  321.5691 C   0  0  0  0  0
   44.0883   27.5841  316.3501 C   0  0  0  0  0
   44.7441   28.8001  316.1071 C   0  0  0  0  0
   44.9926   29.2211  314.7989 C   0  0  0  0  0
   44.5931   28.4262  313.7227 C   0  0  0  0  0
   43.9473   27.2095  313.9542 C   0  0  0  0  0
   43.6975   26.7804  315.2614 C   0  0  0  0  0
   44.1635   24.8380  321.5771 O   0  0  0  0  0
   45.1600   23.7176  319.7750 N   0  0  0  0  0
   45.5816   22.5707  320.4792 N   0  0  0  0  0
   44.3583   26.0211  318.1768 N   0  0  0  0  0
   43.8670   27.1557  317.7010 N   0  0  0  0  0
   44.9014   28.9545  312.0832 Cl  0  0  0  0  0
   42.8549   25.2580  315.4980 Cl  0  0  0  0  0
   41.7336   29.6507  317.1662 S   0  0  0  0  0
  1  2  1  0  0  0
  2  3  1  0  0  0
  3  4  1  0  0  0
  4  5  1  0  0  0
  5  6  1  0  0  0
  6 35  1  0  0  0
  7  8  1  0  0  0
  9 10  1  0  0  0
  9 35  1  0  0  0
 11 13  1  0  0  0
 12 11  1  0  0  0
 13 14  1  0  0  0
 14 29  1  0  0  0
 15 30  1  0  0  0
 16 15  1  0  0  0
 16 17  1  0  0  0
 17 18  1  0  0  0
 18 19  1  0  0  0
 20 19  1  0  0  0
 20 21  1  0  0  0
 20 16  1  0  0  0
 21 30  1  0  0  0
 23 24  1  0  0  0
 25 33  1  0  0  0
 25 26  1  0  0  0
 27 34  1  0  0  0
 27 22  1  0  0  0
 29 30  1  0  0  0
 32 31  1  0  0  0
 32 22  1  0  0  0
 32 10  1  0  0  0
  6  7  2  0  0  0
  8  9  2  0  0  0
 10 11  2  0  0  0
 13 31  2  0  0  0
 14 28  2  0  0  0
 22 23  2  0  0  0
 24 25  2  0  0  0
 26 27  2  0  0  0
M  END
> <rmsd>
0.524120927

$$$$
CHEMBL2030926_5TGZ


 36 39  0  0  0  0  0  0  0  0999 V2000
   43.7035   15.5493  316.9414 C   0  0  0  0  0
   44.1931   16.9238  317.3448 C   0  0  0  0  0
   43.8569   17.1717  318.8002 C   0  0  0  0  0
   45.2847   18.6726  320.2397 C   0  0  0  0  0
   46.7700   20.1840  321.5899 C   0  0  0  0  0
   46.3990   21.3409  322.5132 C   0  0  0  0  0
   46.0764   22.5845  321.6904 C   0  0  0  0  0
   44.9178   22.2958  320.7349 C   0  0  0  0  0
   44.0287   24.6587  320.4994 C   0  0  0  0  0
   43.7852   25.8224  319.6333 C   0  0  0  0  0
   44.0156   27.4188  316.4832 C   0  0  0  0  0
   44.7113   28.6133  316.2414 C   0  0  0  0  0
   45.0208   29.0024  314.9365 C   0  0  0  0  0
   44.6425   28.1973  313.8607 C   0  0  0  0  0
   43.9554   27.0032  314.0894 C   0  0  0  0  0
   43.6440   26.6056  315.3933 C   0  0  0  0  0
   43.1938   27.7791  318.8223 C   0  0  0  0  0
   42.6027   29.1276  318.6565 C   0  0  0  0  0
   42.6750   30.0663  319.6961 C   0  0  0  0  0
   42.1055   31.3341  319.5473 C   0  0  0  0  0
   41.4548   31.6718  318.3581 C   0  0  0  0  0
   41.3695   30.7410  317.3200 C   0  0  0  0  0
   41.9388   29.4737  317.4704 C   0  0  0  0  0
   43.2178   27.0347  319.9914 C   0  0  0  0  0
   42.6740   27.4205  321.3269 C   0  0  0  0  0
   45.2893   21.1456  319.8040 C   0  0  0  0  0
   44.3312   18.4889  319.1898 N   0  0  0  0  0
   45.7227   19.9921  320.5888 N   0  0  0  0  0
   44.6133   23.4779  319.9425 N   0  0  0  0  0
   44.0957   25.8450  318.3228 N   0  0  0  0  0
   43.7337   27.0224  317.8346 N   0  0  0  0  0
   45.7354   17.6722  320.8626 O   0  0  0  0  0
   43.7208   24.6974  321.7214 O   0  0  0  0  0
   45.0279   28.6852  312.2249 Cl  0  0  0  0  0
   42.7457   25.1131  315.6177 Cl  0  0  0  0  0
   40.7426   33.2594  318.1706 Cl  0  0  0  0  0
  1  2  1  0  0  0
  2  3  1  0  0  0
  3 27  1  0  0  0
  4 28  1  0  0  0
  5 28  1  0  0  0
  5  6  1  0  0  0
  6  7  1  0  0  0
  7  8  1  0  0  0
  8 29  1  0  0  0
  8 26  1  0  0  0
  9 10  1  0  0  0
 12 13  1  0  0  0
 14 34  1  0  0  0
 14 15  1  0  0  0
 16 35  1  0  0  0
 16 11  1  0  0  0
 17 18  1  0  0  0
 19 20  1  0  0  0
 21 36  1  0  0  0
 21 22  1  0  0  0
 23 18  1  0  0  0
 24 10  1  0  0  0
 25 24  1  0  0  0
 26 28  1  0  0  0
 27  4  1  0  0  0
 29  9  1  0  0  0
 31 30  1  0  0  0
 31 11  1  0  0  0
 31 17  1  0  0  0
  4 32  2  0  0  0
  9 33  2  0  0  0
 10 30  2  0  0  0
 11 12  2  0  0  0
 13 14  2  0  0  0
 15 16  2  0  0  0
 17 24  2  0  0  0
 18 19  2  0  0  0
 20 21  2  0  0  0
 22 23  2  0  0  0
M  END
> <rmsd>
0.473472685

$$$$
CHEMBL181096_5TGZ


 31 34  0  0  0  0  0  0  0  0999 V2000
   42.8044   27.2336  321.2507 C   0  0  0  0  0
   44.1676   25.8839  319.6220 C   0  0  0  0  0
   44.4939   24.7587  320.5178 C   0  0  0  0  0
   45.6290   22.4837  320.7947 C   0  0  0  0  0
   44.3902   21.7097  321.2676 C   0  0  0  0  0
   44.6840   20.2441  321.6269 C   0  0  0  0  0
   46.1536   19.9482  321.9461 C   0  0  0  0  0
   46.6713   20.6645  323.1968 C   0  0  0  0  0
   46.3504   22.1613  323.2519 C   0  0  0  0  0
   46.5911   22.8927  321.9271 C   0  0  0  0  0
   44.0754   27.0744  317.8532 C   0  0  0  0  0
   44.2930   27.5169  316.4651 C   0  0  0  0  0
   43.8794   26.6750  315.4250 C   0  0  0  0  0
   44.0623   27.0518  314.0926 C   0  0  0  0  0
   44.6688   28.2720  313.7898 C   0  0  0  0  0
   45.1082   29.1079  314.8186 C   0  0  0  0  0
   44.9288   28.7390  316.1554 C   0  0  0  0  0
   43.3747   27.7354  318.8547 C   0  0  0  0  0
   42.5998   28.9936  318.7245 C   0  0  0  0  0
   42.4599   29.8608  319.8179 C   0  0  0  0  0
   41.7378   31.0510  319.6924 C   0  0  0  0  0
   41.1488   31.3844  318.4704 C   0  0  0  0  0
   41.2800   30.5274  317.3752 C   0  0  0  0  0
   42.0019   29.3378  317.5027 C   0  0  0  0  0
   43.4503   26.9779  319.9695 N   0  0  0  0  0
   45.2423   23.6489  320.0061 N   0  0  0  0  0
   44.5621   25.9114  318.3312 N   0  0  0  0  0
   44.1235   24.7703  321.7226 O   0  0  0  0  0
   44.8958   28.7461  312.1206 Cl  0  0  0  0  0
   45.5738   29.8012  317.3991 Cl  0  0  0  0  0
   40.2452   32.8747  318.3120 Cl  0  0  0  0  0
  1 25  1  0  0  0
  2  3  1  0  0  0
  3 26  1  0  0  0
  4 26  1  0  0  0
  4  5  1  0  0  0
  5  6  1  0  0  0
  6  7  1  0  0  0
  7  8  1  0  0  0
  8  9  1  0  0  0
  9 10  1  0  0  0
 10  4  1  0  0  0
 11 27  1  0  0  0
 11 12  1  0  0  0
 13 14  1  0  0  0
 15 29  1  0  0  0
 15 16  1  0  0  0
 17 30  1  0  0  0
 17 12  1  0  0  0
 18 19  1  0  0  0
 18 25  1  0  0  0
 20 21  1  0  0  0
 22 31  1  0  0  0
 22 23  1  0  0  0
 24 19  1  0  0  0
 25  2  1  0  0  0
  2 27  2  0  0  0
  3 28  2  0  0  0
 11 18  2  0  0  0
 12 13  2  0  0  0
 14 15  2  0  0  0
 16 17  2  0  0  0
 19 20  2  0  0  0
 21 22  2  0  0  0
 23 24  2  0  0  0
M  END
> <rmsd>
0.326960295

$$$$
CHEMBL1269767_5TGZ


 67 72  0  0  0  0  0  0  0  0999 V2000
   42.6038   27.5033  321.4752 C   0  0  0  0  0
   43.2043   27.0804  320.1736 C   0  0  0  0  0
   43.9958   25.9681  319.9341 C   0  0  0  0  0
   44.3884   24.9224  320.8919 C   0  0  0  0  0
   45.4525   22.6705  321.2935 C   0  0  0  0  0
   46.1865   21.6173  320.4869 C   0  0  0  0  0
   46.4610   20.3922  321.3393 C   0  0  0  0  0
   45.1999   19.5718  321.4977 C   0  0  0  0  0
   45.4962   18.3589  322.3570 C   0  0  0  0  0
   44.2081   17.6538  322.7453 C   0  0  0  0  0
   43.4710   18.4633  323.7972 C   0  0  0  0  0
   42.2101   17.7443  324.2429 C   0  0  0  0  0
   42.5440   16.5879  325.1705 C   0  0  0  0  0
   43.6689   15.9877  327.1287 C   0  0  0  0  0
   45.1656   16.2301  327.2394 C   0  0  0  0  0
   45.8264   16.0984  325.8746 C   0  0  0  0  0
   47.3418   16.1271  326.0116 C   0  0  0  0  0
   47.8575   14.8129  326.5869 C   0  0  0  0  0
   47.7700   13.7155  325.5333 C   0  0  0  0  0
   47.2695   12.4178  326.1467 C   0  0  0  0  0
   45.7966   12.5424  326.5046 C   0  0  0  0  0
   45.1783   11.1732  326.7442 C   0  0  0  0  0
   45.5906   10.9951  329.2509 C   0  0  0  0  0
   46.1441   10.2107  330.3650 C   0  0  0  0  0
   47.6934    7.2728  331.5650 C   0  0  0  0  0
   48.9325    7.0029  330.9696 C   0  0  0  0  0
   49.5192    5.7418  331.0959 C   0  0  0  0  0
   48.8660    4.7375  331.8122 C   0  0  0  0  0
   47.6211    4.9907  332.3929 C   0  0  0  0  0
   47.0271    6.2519  332.2722 C   0  0  0  0  0
   46.7950    9.4832  332.3394 C   0  0  0  0  0
   47.1403    9.3873  333.7812 C   0  0  0  0  0
   46.4028   10.1004  334.7388 C   0  0  0  0  0
   46.7315   10.0203  336.0952 C   0  0  0  0  0
   47.8041    9.2261  336.5069 C   0  0  0  0  0
   48.5497    8.5164  335.5633 C   0  0  0  0  0
   48.2200    8.5992  334.2080 C   0  0  0  0  0
   46.1671   10.5495  331.7090 C   0  0  0  0  0
   45.6923   11.8251  332.3236 C   0  0  0  0  0
   44.1433   27.3692  316.6916 C   0  0  0  0  0
   45.4652   27.5643  316.2727 C   0  0  0  0  0
   45.7480   27.8701  314.9404 C   0  0  0  0  0
   44.7099   27.9762  314.0138 C   0  0  0  0  0
   43.3893   27.7599  314.4151 C   0  0  0  0  0
   43.0981   27.4529  315.7484 C   0  0  0  0  0
   43.1654   27.7603  318.9652 C   0  0  0  0  0
   42.5140   29.0677  318.7147 C   0  0  0  0  0
   41.3220   29.4054  319.3724 C   0  0  0  0  0
   40.7015   30.6345  319.1287 C   0  0  0  0  0
   41.2701   31.5377  318.2272 C   0  0  0  0  0
   42.4614   31.2135  317.5735 C   0  0  0  0  0
   43.0794   29.9842  317.8170 C   0  0  0  0  0
   44.1392   25.0535  322.1185 O   0  0  0  0  0
   44.9676   12.0684  329.4709 O   0  0  0  0  0
   45.0649   23.7604  320.4156 N   0  0  0  0  0
   43.0305   17.0990  326.4423 N   0  0  0  0  0
   45.7640   10.5225  327.9105 N   0  0  0  0  0
   46.7167    9.0035  330.1984 N   0  0  0  0  0
   47.1005    8.5653  331.3876 N   0  0  0  0  0
   44.3984   25.9750  318.6478 N   0  0  0  0  0
   43.8915   27.0513  318.0659 N   0  0  0  0  0
   49.5999    3.1563  331.9638 Cl  0  0  0  0  0
   45.4380    6.4997  332.9752 Cl  0  0  0  0  0
   48.2192    9.1262  338.2052 Cl  0  0  0  0  0
   45.0657   28.3633  312.3459 Cl  0  0  0  0  0
   41.4290   27.1270  316.1845 Cl  0  0  0  0  0
   40.4949   33.0772  317.9251 Cl  0  0  0  0  0
  1  2  1  0  0  0
  2  3  1  0  0  0
  3  4  1  0  0  0
  4 55  1  0  0  0
  5 55  1  0  0  0
  5  6  1  0  0  0
  6  7  1  0  0  0
  7  8  1  0  0  0
  8  9  1  0  0  0
  9 10  1  0  0  0
 10 11  1  0  0  0
 11 12  1  0  0  0
 12 13  1  0  0  0
 13 56  1  0  0  0
 14 56  1  0  0  0
 14 15  1  0  0  0
 15 16  1  0  0  0
 16 17  1  0  0  0
 17 18  1  0  0  0
 18 19  1  0  0  0
 19 20  1  0  0  0
 20 21  1  0  0  0
 21 22  1  0  0  0
 22 57  1  0  0  0
 23 24  1  0  0  0
 26 27  1  0  0  0
 28 62  1  0  0  0
 28 29  1  0  0  0
 30 63  1  0  0  0
 30 25  1  0  0  0
 31 32  1  0  0  0
 33 34  1  0  0  0
 35 64  1  0  0  0
 35 36  1  0  0  0
 37 32  1  0  0  0
 38 24  1  0  0  0
 39 38  1  0  0  0
 41 42  1  0  0  0
 43 65  1  0  0  0
 43 44  1  0  0  0
 45 66  1  0  0  0
 45 40  1  0  0  0
 46 47  1  0  0  0
 48 49  1  0  0  0
 50 67  1  0  0  0
 50 51  1  0  0  0
 52 47  1  0  0  0
 57 23  1  0  0  0
 59 58  1  0  0  0
 59 25  1  0  0  0
 59 31  1  0  0  0
 61 60  1  0  0  0
 61 40  1  0  0  0
 61 46  1  0  0  0
  3 60  2  0  0  0
  4 53  2  0  0  0
 23 54  2  0  0  0
 24 58  2  0  0  0
 25 26  2  0  0  0
 27 28  2  0  0  0
 29 30  2  0  0  0
 31 38  2  0  0  0
 32 33  2  0  0  0
 34 35  2  0  0  0
 36 37  2  0  0  0
 40 41  2  0  0  0
 42 43  2  0  0  0
 44 45  2  0  0  0
 46  2  2  0  0  0
 47 48  2  0  0  0
 49 50  2  0  0  0
 51 52  2  0  0  0
M  END
> <rmsd>
0.438568413

$$$$
CHEMBL1909957_6KQI


 31 34  0  0  0  0  0  0  0  0999 V2000
   43.4259   27.9262  322.3418 C   0  0  0  0  0
   42.4598   27.4681  321.2661 C   0  0  0  0  0
   43.2019   27.1183  320.0171 C   0  0  0  0  0
   43.9995   26.0109  319.7593 C   0  0  0  0  0
   44.3404   24.9177  320.6831 C   0  0  0  0  0
   45.5630   22.7364  321.0825 C   0  0  0  0  0
   46.7812   22.0192  320.4843 C   0  0  0  0  0
   46.8440   20.5245  320.8279 C   0  0  0  0  0
   46.1900   20.2374  322.1764 C   0  0  0  0  0
   44.7034   20.6194  322.1678 C   0  0  0  0  0
   44.3750   21.7848  321.2245 C   0  0  0  0  0
   44.1615   27.4860  316.5335 C   0  0  0  0  0
   44.6814   26.5327  315.6467 C   0  0  0  0  0
   44.9605   26.8748  314.3213 C   0  0  0  0  0
   44.7288   28.1754  313.8656 C   0  0  0  0  0
   44.2186   29.1415  314.7484 C   0  0  0  0  0
   43.9439   28.7929  316.0731 C   0  0  0  0  0
   43.1571   27.7927  318.8155 C   0  0  0  0  0
   41.2517   28.9863  317.7515 C   0  0  0  0  0
   40.6984   27.8230  317.0009 C   0  0  0  0  0
   40.6973   30.2522  317.7505 C   0  0  0  0  0
   41.4941   31.0201  318.5912 C   0  0  0  0  0
   42.4825   30.1740  319.0578 C   0  0  0  0  0
   43.5778   30.5861  319.9810 C   0  0  0  0  0
   43.8734   24.9009  321.8539 O   0  0  0  0  0
   45.2051   23.8680  320.2408 N   0  0  0  0  0
   44.4080   26.0424  318.4730 N   0  0  0  0  0
   43.8967   27.1240  317.9010 N   0  0  0  0  0
   42.3406   28.9408  318.5406 N   0  0  0  0  0
   45.0914   28.5605  312.1915 Cl  0  0  0  0  0
   43.9121   30.7911  314.2325 Cl  0  0  0  0  0
  1  2  1  0  0  0
  2  3  1  0  0  0
  3  4  1  0  0  0
  4  5  1  0  0  0
  5 26  1  0  0  0
  6 26  1  0  0  0
  6  7  1  0  0  0
  7  8  1  0  0  0
  8  9  1  0  0  0
  9 10  1  0  0  0
 10 11  1  0  0  0
 11  6  1  0  0  0
 13 14  1  0  0  0
 15 30  1  0  0  0
 15 16  1  0  0  0
 16 31  1  0  0  0
 17 12  1  0  0  0
 18 29  1  0  0  0
 20 19  1  0  0  0
 21 22  1  0  0  0
 23 29  1  0  0  0
 24 23  1  0  0  0
 28 27  1  0  0  0
 28 12  1  0  0  0
 28 18  1  0  0  0
 29 19  1  0  0  0
  4 27  2  0  0  0
  5 25  2  0  0  0
 12 13  2  0  0  0
 14 15  2  0  0  0
 16 17  2  0  0  0
 18  3  2  0  0  0
 19 21  2  0  0  0
 22 23  2  0  0  0
M  END
> <rmsd>
0.34163174

$$$$
CHEMBL1088220_5TGZ


 30 33  0  0  0  0  0  0  0  0999 V2000
   44.2710   25.0065  321.8992 O   0  0  0  0  0
   44.5883   24.9093  320.6839 C   0  0  0  0  0
   44.5275   21.8476  321.2227 C   0  0  0  0  0
   44.8044   20.7211  322.2264 C   0  0  0  0  0
   46.3026   20.4909  322.4422 C   0  0  0  0  0
   47.0754   20.6515  321.1345 C   0  0  0  0  0
   46.7682   21.9915  320.4427 C   0  0  0  0  0
   44.2134   25.9579  319.7215 C   0  0  0  0  0
   44.0187   27.0175  317.8785 C   0  0  0  0  0
   44.2245   27.3900  316.4607 C   0  0  0  0  0
   44.5441   28.7194  316.1460 C   0  0  0  0  0
   44.7745   29.1043  314.8240 C   0  0  0  0  0
   44.6932   28.1604  313.7999 C   0  0  0  0  0
   44.3805   26.8329  314.0977 C   0  0  0  0  0
   44.1501   26.4380  315.4195 C   0  0  0  0  0
   42.6028   28.9695  318.5580 C   0  0  0  0  0
   41.6542   29.0147  317.5254 C   0  0  0  0  0
   40.9233   30.1823  317.2899 C   0  0  0  0  0
   41.1358   31.3117  318.0849 C   0  0  0  0  0
   42.0791   31.2743  319.1152 C   0  0  0  0  0
   42.8109   30.1070  319.3507 C   0  0  0  0  0
   43.4751   27.1067  319.9618 C   0  0  0  0  0
   45.3272   23.7724  320.2304 N   0  0  0  0  0
   45.6869   22.7323  321.0996 N   0  0  0  0  0
   44.5571   25.9048  318.4194 N   0  0  0  0  0
   43.3607   27.7717  318.7929 N   0  0  0  0  0
   44.9798   28.6411  312.1418 Cl  0  0  0  0  0
   43.7179   24.7584  315.7087 Cl  0  0  0  0  0
   40.2205   32.7737  317.7896 Cl  0  0  0  0  0
   42.5537   27.6834  321.7887 I   0  0  0  0  0
  2 23  1  0  0  0
  2  8  1  0  0  0
  3 24  1  0  0  0
  3  4  1  0  0  0
  4  5  1  0  0  0
  5  6  1  0  0  0
  6  7  1  0  0  0
  7 24  1  0  0  0
  8 25  1  0  0  0
  9 10  1  0  0  0
  9 26  1  0  0  0
 11 12  1  0  0  0
 13 27  1  0  0  0
 13 14  1  0  0  0
 15 28  1  0  0  0
 15 10  1  0  0  0
 17 18  1  0  0  0
 19 29  1  0  0  0
 19 20  1  0  0  0
 21 16  1  0  0  0
 22 30  1  0  0  0
 23 24  1  0  0  0
 26 16  1  0  0  0
 26 22  1  0  0  0
  2  1  2  0  0  0
  9 25  2  0  0  0
 10 11  2  0  0  0
 12 13  2  0  0  0
 14 15  2  0  0  0
 16 17  2  0  0  0
 18 19  2  0  0  0
 20 21  2  0  0  0
 22  8  2  0  0  0
M  END
> <rmsd>
0.350356996

$$$$
CHEMBL461429_5TGZ


 36 40  0  0  0  0  0  0  0  0999 V2000
   38.6537   36.8237  322.1819 C   0  0  0  0  0
   37.9130   36.2495  320.9888 C   0  0  0  0  0
   38.5330   34.9303  320.5646 C   0  0  0  0  0
   39.8405   35.1687  319.8323 C   0  0  0  0  0
   40.4208   33.8857  319.4357 C   0  0  0  0  0
   40.8991   32.8283  319.1093 C   0  0  0  0  0
   41.4664   31.5684  318.7236 C   0  0  0  0  0
   41.5700   31.1038  317.4222 C   0  0  0  0  0
   42.1654   29.8370  317.3494 C   0  0  0  0  0
   42.5264   29.3209  318.5923 C   0  0  0  0  0
   43.1701   28.0062  318.8260 C   0  0  0  0  0
   43.1685   27.2821  320.0090 C   0  0  0  0  0
   42.5376   27.6528  321.3095 C   0  0  0  0  0
   43.8205   26.0967  319.7054 C   0  0  0  0  0
   44.0794   24.9627  320.6059 C   0  0  0  0  0
   45.3615   21.5940  320.0513 C   0  0  0  0  0
   46.5065   20.8163  320.6683 C   0  0  0  0  0
   45.9686   19.6252  321.4438 C   0  0  0  0  0
   45.9183   20.0471  322.8947 C   0  0  0  0  0
   46.9905   21.1026  323.0394 C   0  0  0  0  0
   47.1324   21.7565  321.6763 C   0  0  0  0  0
   46.3002   23.0225  321.6182 C   0  0  0  0  0
   44.0898   27.6213  316.5297 C   0  0  0  0  0
   43.5016   26.8800  315.4970 C   0  0  0  0  0
   43.7660   27.1960  314.1623 C   0  0  0  0  0
   44.6278   28.2507  313.8516 C   0  0  0  0  0
   45.2335   28.9832  314.8751 C   0  0  0  0  0
   44.9729   28.6732  316.2135 C   0  0  0  0  0
   43.7163   25.0073  321.8120 O   0  0  0  0  0
   44.7489   23.8036  320.1039 N   0  0  0  0  0
   45.0531   22.7123  320.9300 N   0  0  0  0  0
   44.2000   26.1130  318.4131 N   0  0  0  0  0
   43.8136   27.2661  317.8899 N   0  0  0  0  0
   44.9600   28.6456  312.1794 Cl  0  0  0  0  0
   45.7996   29.5890  317.4636 Cl  0  0  0  0  0
   42.1003   30.4343  319.7823 S   0  0  0  0  0
  1  2  1  0  0  0
  2  3  1  0  0  0
  3  4  1  0  0  0
  4  5  1  0  0  0
  7  6  1  0  0  0
  7 36  1  0  0  0
  8  9  1  0  0  0
 10 11  1  0  0  0
 10 36  1  0  0  0
 12 14  1  0  0  0
 13 12  1  0  0  0
 14 15  1  0  0  0
 15 30  1  0  0  0
 16 31  1  0  0  0
 17 16  1  0  0  0
 17 18  1  0  0  0
 18 19  1  0  0  0
 19 20  1  0  0  0
 21 20  1  0  0  0
 21 22  1  0  0  0
 21 17  1  0  0  0
 22 31  1  0  0  0
 24 25  1  0  0  0
 26 34  1  0  0  0
 26 27  1  0  0  0
 28 35  1  0  0  0
 28 23  1  0  0  0
 30 31  1  0  0  0
 33 32  1  0  0  0
 33 23  1  0  0  0
 33 11  1  0  0  0
  7  8  2  0  0  0
  9 10  2  0  0  0
 11 12  2  0  0  0
 14 32  2  0  0  0
 15 29  2  0  0  0
 23 24  2  0  0  0
 25 26  2  0  0  0
 27 28  2  0  0  0
  5  6  3  0  0  0
M  END
> <rmsd>
0.507138193

$$$$
CHEMBL492861_5TGZ


 35 38  0  0  0  0  0  0  0  0999 V2000
   42.7453   27.5644  321.4194 C   0  0  0  0  0
   43.3562   27.1843  320.1118 C   0  0  0  0  0
   44.0880   26.0415  319.8305 C   0  0  0  0  0
   44.4709   24.9728  320.7659 C   0  0  0  0  0
   46.7026   22.1051  320.4836 C   0  0  0  0  0
   47.2472   20.9873  321.3818 C   0  0  0  0  0
   46.2218   20.5254  322.4208 C   0  0  0  0  0
   44.8102   20.5295  321.8376 C   0  0  0  0  0
   44.4491   21.8890  321.2132 C   0  0  0  0  0
   44.1371   27.4616  316.5909 C   0  0  0  0  0
   44.7197   28.6985  316.2757 C   0  0  0  0  0
   44.9836   29.0397  314.9475 C   0  0  0  0  0
   44.6736   28.1439  313.9227 C   0  0  0  0  0
   44.1014   26.9064  314.2256 C   0  0  0  0  0
   43.8358   26.5568  315.5533 C   0  0  0  0  0
   43.2505   27.8497  318.9005 C   0  0  0  0  0
   42.4866   29.0919  318.6456 C   0  0  0  0  0
   41.9055   29.4496  317.4312 C   0  0  0  0  0
   41.2247   30.6741  317.4799 C   0  0  0  0  0
   41.2750   31.2612  318.7346 C   0  0  0  0  0
   40.6686   32.5130  319.0868 C   0  0  0  0  0
   40.1590   33.5638  319.3850 C   0  0  0  0  0
   39.5400   34.8386  319.7494 C   0  0  0  0  0
   37.7408   35.8420  320.5604 C   0  0  0  0  0
   37.2047   35.5830  321.9545 C   0  0  0  0  0
   36.6378   36.4290  319.7019 C   0  0  0  0  0
   44.1369   25.0351  321.9797 O   0  0  0  0  0
   38.1807   34.6416  319.9997 O   0  0  0  0  0
   45.2316   23.8592  320.2907 N   0  0  0  0  0
   45.5971   22.8023  321.1368 N   0  0  0  0  0
   44.4118   26.0291  318.5232 N   0  0  0  0  0
   43.9024   27.1169  317.9643 N   0  0  0  0  0
   45.0035   28.5710  312.2578 Cl  0  0  0  0  0
   43.0852   25.0020  315.8748 Cl  0  0  0  0  0
   42.1484   30.2872  319.7831 S   0  0  0  0  0
  1  2  1  0  0  0
  2  3  1  0  0  0
  3  4  1  0  0  0
  4 29  1  0  0  0
  5 30  1  0  0  0
  5  6  1  0  0  0
  6  7  1  0  0  0
  7  8  1  0  0  0
  8  9  1  0  0  0
  9 30  1  0  0  0
 11 12  1  0  0  0
 13 33  1  0  0  0
 13 14  1  0  0  0
 15 34  1  0  0  0
 15 10  1  0  0  0
 16 17  1  0  0  0
 17 35  1  0  0  0
 18 19  1  0  0  0
 20 21  1  0  0  0
 20 35  1  0  0  0
 23 22  1  0  0  0
 23 28  1  0  0  0
 24 28  1  0  0  0
 24 25  1  0  0  0
 24 26  1  0  0  0
 29 30  1  0  0  0
 32 31  1  0  0  0
 32 10  1  0  0  0
 32 16  1  0  0  0
  3 31  2  0  0  0
  4 27  2  0  0  0
 10 11  2  0  0  0
 12 13  2  0  0  0
 14 15  2  0  0  0
 16  2  2  0  0  0
 17 18  2  0  0  0
 19 20  2  0  0  0
 21 22  3  0  0  0
M  END
> <rmsd>
0.240342289

$$$$
CHEMBL4076020_5TGZ


 36 39  0  0  0  0  0  0  0  0999 V2000
   42.5151   27.4860  321.3139 C   0  0  0  0  0
   43.2266   27.0981  320.0572 C   0  0  0  0  0
   44.0639   26.0109  319.8912 C   0  0  0  0  0
   44.0519   27.1351  318.0753 C   0  0  0  0  0
   42.5620   29.0695  318.6760 C   0  0  0  0  0
   41.2523   29.2821  319.1288 C   0  0  0  0  0
   40.6142   30.5035  318.8977 C   0  0  0  0  0
   41.2798   31.5310  318.2105 C   0  0  0  0  0
   42.5887   31.3239  317.7682 C   0  0  0  0  0
   43.2276   30.1039  318.0015 C   0  0  0  0  0
   39.3193   33.0568  318.3145 C   0  0  0  0  0
   38.3373   32.3395  317.3929 C   0  0  0  0  0
   38.3109   32.9419  315.9937 C   0  0  0  0  0
   44.2965   27.4812  316.6588 C   0  0  0  0  0
   45.5916   27.4470  316.0968 C   0  0  0  0  0
   45.7715   27.7565  314.7448 C   0  0  0  0  0
   44.6773   28.0883  313.9437 C   0  0  0  0  0
   43.3939   28.1151  314.4914 C   0  0  0  0  0
   43.2054   27.8101  315.8408 C   0  0  0  0  0
   44.3947   24.9707  320.8784 C   0  0  0  0  0
   44.5620   21.9207  321.3353 C   0  0  0  0  0
   44.9425   20.6301  322.0639 C   0  0  0  0  0
   46.2398   20.0230  321.5116 C   0  0  0  0  0
   46.8906   20.9086  320.4489 C   0  0  0  0  0
   46.9499   22.3615  320.9424 C   0  0  0  0  0
   44.5780   26.0297  318.6459 N   0  0  0  0  0
   43.2212   27.8102  318.9107 N   0  0  0  0  0
   45.3266   23.9445  320.5282 N   0  0  0  0  0
   45.6546   22.8997  321.4058 N   0  0  0  0  0
   40.6665   32.7625  317.9543 O   0  0  0  0  0
   43.8672   24.9794  322.0230 O   0  0  0  0  0
   39.5342   32.7690  315.3729 F   0  0  0  0  0
   37.3370   32.3035  315.2513 F   0  0  0  0  0
   38.0132   34.2913  316.0622 F   0  0  0  0  0
   44.9158   28.4736  312.2536 Cl  0  0  0  0  0
   47.0187   27.0777  317.0546 Cl  0  0  0  0  0
  1  2  1  0  0  0
  3 26  1  0  0  0
  3 20  1  0  0  0
  4 27  1  0  0  0
  4 14  1  0  0  0
  6  7  1  0  0  0
  8  9  1  0  0  0
  8 30  1  0  0  0
 10  5  1  0  0  0
 11 30  1  0  0  0
 11 12  1  0  0  0
 12 13  1  0  0  0
 13 32  1  0  0  0
 13 33  1  0  0  0
 13 34  1  0  0  0
 15 16  1  0  0  0
 15 36  1  0  0  0
 17 18  1  0  0  0
 17 35  1  0  0  0
 19 14  1  0  0  0
 20 28  1  0  0  0
 21 29  1  0  0  0
 21 22  1  0  0  0
 22 23  1  0  0  0
 23 24  1  0  0  0
 24 25  1  0  0  0
 25 29  1  0  0  0
 27  5  1  0  0  0
 27  2  1  0  0  0
 28 29  1  0  0  0
  2  3  2  0  0  0
  4 26  2  0  0  0
  5  6  2  0  0  0
  7  8  2  0  0  0
  9 10  2  0  0  0
 14 15  2  0  0  0
 16 17  2  0  0  0
 18 19  2  0  0  0
 20 31  2  0  0  0
M  END
> <rmsd>
0.358529836

$$$$
CHEMBL368547_6KQI


 29 32  0  0  0  0  0  0  0  0999 V2000
   42.6994   27.4646  321.3777 C   0  0  0  0  0
   43.2869   27.0207  320.0769 C   0  0  0  0  0
   43.8945   25.8056  319.8230 C   0  0  0  0  0
   44.1477   24.7131  320.7762 C   0  0  0  0  0
   45.0863   22.4003  321.2039 C   0  0  0  0  0
   46.2863   22.7384  322.0760 C   0  0  0  0  0
   47.3719   21.7383  321.7343 C   0  0  0  0  0
   46.6648   20.5780  321.0754 C   0  0  0  0  0
   45.4733   21.1903  320.3774 C   0  0  0  0  0
   43.8215   26.9168  317.9998 C   0  0  0  0  0
   44.0895   27.2941  316.5950 C   0  0  0  0  0
   44.6090   28.5677  316.3198 C   0  0  0  0  0
   44.9048   28.9487  315.0096 C   0  0  0  0  0
   44.6900   28.0557  313.9593 C   0  0  0  0  0
   44.1796   26.7826  314.2189 C   0  0  0  0  0
   43.8825   26.3917  315.5286 C   0  0  0  0  0
   42.6066   28.9988  318.7183 C   0  0  0  0  0
   42.7826   30.0367  319.6458 C   0  0  0  0  0
   42.1631   31.2739  319.4487 C   0  0  0  0  0
   41.3603   31.4821  318.3242 C   0  0  0  0  0
   41.1736   30.4525  317.3984 C   0  0  0  0  0
   41.7925   29.2153  317.5956 C   0  0  0  0  0
   43.8120   24.8298  321.9858 O   0  0  0  0  0
   44.7771   23.5134  320.3187 N   0  0  0  0  0
   44.2364   25.7409  318.5211 N   0  0  0  0  0
   43.2390   27.7219  318.9251 N   0  0  0  0  0
   45.0584   28.5323  312.3162 Cl  0  0  0  0  0
   43.2052   24.7879  315.7740 Cl  0  0  0  0  0
   40.5857   33.0317  318.0770 Cl  0  0  0  0  0
  1  2  1  0  0  0
  3  4  1  0  0  0
  3 25  1  0  0  0
  4 24  1  0  0  0
  5 24  1  0  0  0
  5  6  1  0  0  0
  6  7  1  0  0  0
  7  8  1  0  0  0
  8  9  1  0  0  0
  9  5  1  0  0  0
 10 11  1  0  0  0
 10 26  1  0  0  0
 12 13  1  0  0  0
 14 27  1  0  0  0
 14 15  1  0  0  0
 16 28  1  0  0  0
 16 11  1  0  0  0
 18 19  1  0  0  0
 20 29  1  0  0  0
 20 21  1  0  0  0
 22 17  1  0  0  0
 26 17  1  0  0  0
 26  2  1  0  0  0
  2  3  2  0  0  0
  4 23  2  0  0  0
 10 25  2  0  0  0
 11 12  2  0  0  0
 13 14  2  0  0  0
 15 16  2  0  0  0
 17 18  2  0  0  0
 19 20  2  0  0  0
 21 22  2  0  0  0
M  END
> <rmsd>
0.4153139

$$$$
CHEMBL474424_6KQI


 32 35  0  0  0  0  0  0  0  0999 V2000
   45.4140   22.6015  318.7593 O   0  0  0  0  0
   44.4456   23.1495  319.3501 C   0  0  0  0  0
   43.1504   23.3223  318.6368 C   0  0  0  0  0
   42.7651   26.7732  317.9660 C   0  0  0  0  0
   42.3234   28.1394  318.3178 C   0  0  0  0  0
   41.6506   28.9061  317.3547 C   0  0  0  0  0
   41.1900   30.1887  317.6576 C   0  0  0  0  0
   41.3928   30.7181  318.9323 C   0  0  0  0  0
   42.0569   29.9658  319.9027 C   0  0  0  0  0
   42.5199   28.6792  319.6089 C   0  0  0  0  0
   43.2703   26.3147  316.7541 C   0  0  0  0  0
   43.6765   27.1057  315.5724 C   0  0  0  0  0
   44.2896   28.3528  315.7664 C   0  0  0  0  0
   44.7166   29.1157  314.6780 C   0  0  0  0  0
   44.5401   28.6364  313.3800 C   0  0  0  0  0
   43.9362   27.3954  313.1707 C   0  0  0  0  0
   43.5071   26.6233  314.2551 C   0  0  0  0  0
   45.8202   23.5056  321.4494 C   0  0  0  0  0
   45.9556   22.1120  321.9624 C   0  0  0  0  0
   46.8321   21.2186  321.3368 C   0  0  0  0  0
   46.9508   19.9077  321.8087 C   0  0  0  0  0
   46.1919   19.4881  322.9057 C   0  0  0  0  0
   45.3136   20.3790  323.5305 C   0  0  0  0  0
   45.1945   21.6898  323.0587 C   0  0  0  0  0
   43.0634   24.6655  318.0905 N   0  0  0  0  0
   42.6426   25.7110  318.7838 N   0  0  0  0  0
   43.4609   24.9867  316.8701 N   0  0  0  0  0
   44.5905   23.6480  320.6816 N   0  0  0  0  0
   40.8177   32.3263  319.3138 Cl  0  0  0  0  0
   43.3851   27.8128  320.8709 Cl  0  0  0  0  0
   45.0731   29.5918  312.0141 Cl  0  0  0  0  0
   42.7177   25.0917  313.9064 Cl  0  0  0  0  0
  2 28  1  0  0  0
  3  2  1  0  0  0
  3 25  1  0  0  0
  4  5  1  0  0  0
  4 11  1  0  0  0
  6  7  1  0  0  0
  8 29  1  0  0  0
  8  9  1  0  0  0
 10 30  1  0  0  0
 10  5  1  0  0  0
 11 12  1  0  0  0
 13 14  1  0  0  0
 15 31  1  0  0  0
 15 16  1  0  0  0
 17 32  1  0  0  0
 17 12  1  0  0  0
 18 28  1  0  0  0
 18 19  1  0  0  0
 20 21  1  0  0  0
 22 23  1  0  0  0
 24 19  1  0  0  0
 25 26  1  0  0  0
 25 27  1  0  0  0
  2  1  2  0  0  0
  4 26  2  0  0  0
  5  6  2  0  0  0
  7  8  2  0  0  0
  9 10  2  0  0  0
 11 27  2  0  0  0
 12 13  2  0  0  0
 14 15  2  0  0  0
 16 17  2  0  0  0
 19 20  2  0  0  0
 21 22  2  0  0  0
 23 24  2  0  0  0
M  END
> <rmsd>
0.75897485

$$$$
CHEMBL493303_5TGZ


 37 42  0  0  0  0  0  0  0  0999 V2000
   42.5406   27.6424  321.2981 C   0  0  0  0  0
   43.1813   27.2755  320.0012 C   0  0  0  0  0
   43.8402   26.0933  319.6996 C   0  0  0  0  0
   44.0972   24.9591  320.6007 C   0  0  0  0  0
   46.3045   23.0206  321.6479 C   0  0  0  0  0
   47.1204   21.7463  321.7431 C   0  0  0  0  0
   46.9031   21.0898  323.0960 C   0  0  0  0  0
   45.8424   20.0321  322.8901 C   0  0  0  0  0
   45.9749   19.6147  321.4432 C   0  0  0  0  0
   46.5335   20.8170  320.7012 C   0  0  0  0  0
   45.4057   21.5984  320.0560 C   0  0  0  0  0
   44.1080   27.6192  316.5242 C   0  0  0  0  0
   43.5272   26.8716  315.4919 C   0  0  0  0  0
   43.7817   27.1944  314.1568 C   0  0  0  0  0
   44.6255   28.2630  313.8454 C   0  0  0  0  0
   45.2253   29.0013  314.8686 C   0  0  0  0  0
   44.9754   28.6839  316.2070 C   0  0  0  0  0
   43.1832   27.9995  318.8185 C   0  0  0  0  0
   42.5341   29.3111  318.5837 C   0  0  0  0  0
   42.1588   29.8191  317.3418 C   0  0  0  0  0
   41.5627   31.0858  317.4137 C   0  0  0  0  0
   41.4742   31.5583  318.7134 C   0  0  0  0  0
   40.9140   32.8221  319.0973 C   0  0  0  0  0
   40.4445   33.8845  319.4208 C   0  0  0  0  0
   39.8743   35.1733  319.8163 C   0  0  0  0  0
   38.6388   35.4758  318.9940 C   0  0  0  0  0
   38.6914   36.9565  318.6583 C   0  0  0  0  0
   39.9829   37.4963  319.2421 C   0  0  0  0  0
   40.8481   36.2892  319.5226 C   0  0  0  0  0
   43.7170   24.9977  321.8018 O   0  0  0  0  0
   44.7822   23.8061  320.1054 N   0  0  0  0  0
   45.0732   22.7115  320.9321 N   0  0  0  0  0
   44.2241   26.1117  318.4087 N   0  0  0  0  0
   43.8337   27.2632  317.8844 N   0  0  0  0  0
   44.9409   28.6701  312.1732 Cl  0  0  0  0  0
   45.7939   29.6088  317.4560 Cl  0  0  0  0  0
   42.1225   30.4319  319.7719 S   0  0  0  0  0
  1  2  1  0  0  0
  2  3  1  0  0  0
  3  4  1  0  0  0
  4 31  1  0  0  0
  5 32  1  0  0  0
  6  5  1  0  0  0
  6  7  1  0  0  0
  7  8  1  0  0  0
  8  9  1  0  0  0
 10  9  1  0  0  0
 10 11  1  0  0  0
 10  6  1  0  0  0
 11 32  1  0  0  0
 13 14  1  0  0  0
 15 35  1  0  0  0
 15 16  1  0  0  0
 17 36  1  0  0  0
 17 12  1  0  0  0
 18 19  1  0  0  0
 19 37  1  0  0  0
 20 21  1  0  0  0
 22 23  1  0  0  0
 22 37  1  0  0  0
 25 24  1  0  0  0
 25 26  1  0  0  0
 26 27  1  0  0  0
 27 28  1  0  0  0
 28 29  1  0  0  0
 29 25  1  0  0  0
 31 32  1  0  0  0
 34 33  1  0  0  0
 34 12  1  0  0  0
 34 18  1  0  0  0
  3 33  2  0  0  0
  4 30  2  0  0  0
 12 13  2  0  0  0
 14 15  2  0  0  0
 16 17  2  0  0  0
 18  2  2  0  0  0
 19 20  2  0  0  0
 21 22  2  0  0  0
 23 24  3  0  0  0
M  END
> <rmsd>
0.498795629

$$$$
CHEMBL269919_5TGZ


 30 33  0  0  0  0  0  0  0  0999 V2000
   43.8844   27.0858  317.8755 N   0  0  0  0  0
   44.2881   25.9441  318.4160 N   0  0  0  0  0
   42.6150   29.0834  318.6020 N   0  0  0  0  0
   44.8774   23.6631  320.1373 N   0  0  0  0  0
   43.9424   25.9500  319.7207 C   0  0  0  0  0
   43.3015   27.1414  320.0222 C   0  0  0  0  0
   43.2848   27.8335  318.8301 C   0  0  0  0  0
   41.5703   29.3032  317.7821 C   0  0  0  0  0
   41.1656   30.6231  317.8427 C   0  0  0  0  0
   42.0131   31.2424  318.7530 C   0  0  0  0  0
   42.8781   30.2606  319.1978 C   0  0  0  0  0
   43.9798   30.4903  320.1755 C   0  0  0  0  0
   40.9055   28.2573  316.9531 C   0  0  0  0  0
   42.6792   27.5531  321.3133 C   0  0  0  0  0
   44.2155   24.8297  320.6334 C   0  0  0  0  0
   45.2083   22.5266  320.9834 C   0  0  0  0  0
   45.5377   21.3128  320.1036 C   0  0  0  0  0
   46.5090   20.3229  320.7613 C   0  0  0  0  0
   46.3685   20.3343  322.2807 C   0  0  0  0  0
   46.6977   21.7169  322.8606 C   0  0  0  0  0
   46.3764   22.8750  321.9061 C   0  0  0  0  0
   44.1396   27.4476  316.5050 C   0  0  0  0  0
   44.3125   28.7950  316.1493 C   0  0  0  0  0
   44.5811   29.1545  314.8268 C   0  0  0  0  0
   44.6856   28.1689  313.8441 C   0  0  0  0  0
   44.5233   26.8243  314.1843 C   0  0  0  0  0
   44.2558   26.4593  315.5074 C   0  0  0  0  0
   43.8675   24.8942  321.8435 O   0  0  0  0  0
   44.0880   25.1468  315.8036 F   0  0  0  0  0
   44.9450   28.5163  312.5609 F   0  0  0  0  0
  1  2  1  0  0  0
  1 22  1  0  0  0
  3  8  1  0  0  0
  5  6  1  0  0  0
  5 15  1  0  0  0
  7  3  1  0  0  0
  7  1  1  0  0  0
  9 10  1  0  0  0
 11  3  1  0  0  0
 12 11  1  0  0  0
 13  8  1  0  0  0
 14  6  1  0  0  0
 15  4  1  0  0  0
 16  4  1  0  0  0
 16 17  1  0  0  0
 17 18  1  0  0  0
 18 19  1  0  0  0
 19 20  1  0  0  0
 20 21  1  0  0  0
 21 16  1  0  0  0
 23 24  1  0  0  0
 25 26  1  0  0  0
 25 30  1  0  0  0
 27 29  1  0  0  0
 27 22  1  0  0  0
  5  2  2  0  0  0
  6  7  2  0  0  0
  8  9  2  0  0  0
 10 11  2  0  0  0
 15 28  2  0  0  0
 22 23  2  0  0  0
 24 25  2  0  0  0
 26 27  2  0  0  0
M  END
> <rmsd>
0.36866641

$$$$
CHEMBL523872_5TGZ


 38 42  0  0  0  0  0  0  0  0999 V2000
   42.5142   27.4198  321.3527 C   0  0  0  0  0
   43.1080   27.0416  320.0368 C   0  0  0  0  0
   43.8220   25.8900  319.7425 C   0  0  0  0  0
   44.1131   24.7644  320.6438 C   0  0  0  0  0
   45.5878   21.4694  320.1057 C   0  0  0  0  0
   46.2476   20.3020  320.8611 C   0  0  0  0  0
   46.1888   20.4931  322.3755 C   0  0  0  0  0
   46.7523   21.8584  322.7788 C   0  0  0  0  0
   46.3773   22.9605  321.7800 C   0  0  0  0  0
   44.0818   27.4416  316.5786 C   0  0  0  0  0
   45.4030   27.6547  316.1655 C   0  0  0  0  0
   45.6818   27.9995  314.8409 C   0  0  0  0  0
   44.6409   28.1256  313.9183 C   0  0  0  0  0
   43.3221   27.8934  314.3163 C   0  0  0  0  0
   43.0354   27.5478  315.6403 C   0  0  0  0  0
   43.1352   27.7894  318.8693 C   0  0  0  0  0
   42.5784   29.1494  318.6774 C   0  0  0  0  0
   42.9740   30.0557  317.6960 C   0  0  0  0  0
   42.2780   31.2714  317.7458 C   0  0  0  0  0
   41.3435   31.3073  318.7684 C   0  0  0  0  0
   40.4846   32.4177  319.0649 C   0  0  0  0  0
   39.7628   33.3497  319.3160 C   0  0  0  0  0
   38.8861   34.4799  319.6236 C   0  0  0  0  0
   38.4128   35.1268  321.9642 C   0  0  0  0  0
   38.8743   35.7123  323.1482 C   0  0  0  0  0
   38.0390   35.7967  324.2664 C   0  0  0  0  0
   36.7359   35.2948  324.2057 C   0  0  0  0  0
   36.2673   34.7083  323.0269 C   0  0  0  0  0
   37.1021   34.6238  321.9087 C   0  0  0  0  0
   43.6860   24.7678  321.8298 O   0  0  0  0  0
   39.2722   35.0561  320.8643 O   0  0  0  0  0
   44.8825   23.6585  320.1652 N   0  0  0  0  0
   45.2063   22.5732  320.9921 N   0  0  0  0  0
   44.2468   25.9412  318.4652 N   0  0  0  0  0
   43.8251   27.0818  317.9414 N   0  0  0  0  0
   44.9900   28.5599  312.2595 Cl  0  0  0  0  0
   41.3674   27.2146  316.0782 Cl  0  0  0  0  0
   41.3681   29.8580  319.6102 S   0  0  0  0  0
  1  2  1  0  0  0
  2  3  1  0  0  0
  3  4  1  0  0  0
  4 32  1  0  0  0
  5 33  1  0  0  0
  5  6  1  0  0  0
  6  7  1  0  0  0
  7  8  1  0  0  0
  8  9  1  0  0  0
  9 33  1  0  0  0
 11 12  1  0  0  0
 13 36  1  0  0  0
 13 14  1  0  0  0
 15 37  1  0  0  0
 15 10  1  0  0  0
 16 17  1  0  0  0
 17 38  1  0  0  0
 18 19  1  0  0  0
 20 21  1  0  0  0
 20 38  1  0  0  0
 23 22  1  0  0  0
 23 31  1  0  0  0
 24 31  1  0  0  0
 25 26  1  0  0  0
 27 28  1  0  0  0
 29 24  1  0  0  0
 32 33  1  0  0  0
 35 34  1  0  0  0
 35 10  1  0  0  0
 35 16  1  0  0  0
  3 34  2  0  0  0
  4 30  2  0  0  0
 10 11  2  0  0  0
 12 13  2  0  0  0
 14 15  2  0  0  0
 16  2  2  0  0  0
 17 18  2  0  0  0
 19 20  2  0  0  0
 24 25  2  0  0  0
 26 27  2  0  0  0
 28 29  2  0  0  0
 21 22  3  0  0  0
M  END
> <rmsd>
0.385998547

$$$$
CHEMBL494299_5TGZ


 34 36  0  0  0  0  0  0  0  0999 V2000
   36.7379   35.4002  322.5783 C   0  0  0  0  0
   37.5411   35.6376  321.3171 C   0  0  0  0  0
   38.2939   34.3755  320.9537 C   0  0  0  0  0
   39.0985   34.6128  319.6928 C   0  0  0  0  0
   39.8263   33.3938  319.3393 C   0  0  0  0  0
   40.4266   32.3900  319.0471 C   0  0  0  0  0
   41.1413   31.1950  318.7010 C   0  0  0  0  0
   41.2698   30.6844  317.4189 C   0  0  0  0  0
   42.0237   29.5034  317.3836 C   0  0  0  0  0
   42.4804   29.0994  318.6363 C   0  0  0  0  0
   43.2991   27.8944  318.9075 C   0  0  0  0  0
   43.3991   27.2168  320.1131 C   0  0  0  0  0
   42.7221   27.5398  321.4031 C   0  0  0  0  0
   44.2059   26.1217  319.8439 C   0  0  0  0  0
   44.6129   25.0604  320.7782 C   0  0  0  0  0
   45.8596   22.8910  321.1662 C   0  0  0  0  0
   44.6949   21.9427  321.3951 C   0  0  0  0  0
   45.1140   20.7843  322.2862 C   0  0  0  0  0
   45.7841   19.6793  321.4784 C   0  0  0  0  0
   47.2482   19.9898  321.2076 C   0  0  0  0  0
   48.0713   19.8014  322.4676 C   0  0  0  0  0
   44.2543   27.5627  316.6177 C   0  0  0  0  0
   43.7849   26.7043  315.6156 C   0  0  0  0  0
   43.9911   27.0117  314.2687 C   0  0  0  0  0
   44.6754   28.1766  313.9152 C   0  0  0  0  0
   45.1667   29.0273  314.9081 C   0  0  0  0  0
   44.9645   28.7262  316.2584 C   0  0  0  0  0
   44.2363   25.0905  321.9812 O   0  0  0  0  0
   45.4443   23.9939  320.3128 N   0  0  0  0  0
   44.5764   26.1469  318.5491 N   0  0  0  0  0
   44.0353   27.2190  317.9913 N   0  0  0  0  0
   44.9310   28.5633  312.2278 Cl  0  0  0  0  0
   45.6493   29.7992  317.4687 Cl  0  0  0  0  0
   41.9451   30.2050  319.7888 S   0  0  0  0  0
  1  2  1  0  0  0
  2  3  1  0  0  0
  3  4  1  0  0  0
  4  5  1  0  0  0
  7  6  1  0  0  0
  7 34  1  0  0  0
  8  9  1  0  0  0
 10 11  1  0  0  0
 10 34  1  0  0  0
 12 14  1  0  0  0
 13 12  1  0  0  0
 14 15  1  0  0  0
 15 29  1  0  0  0
 16 29  1  0  0  0
 16 17  1  0  0  0
 17 18  1  0  0  0
 18 19  1  0  0  0
 19 20  1  0  0  0
 20 21  1  0  0  0
 23 24  1  0  0  0
 25 32  1  0  0  0
 25 26  1  0  0  0
 27 33  1  0  0  0
 27 22  1  0  0  0
 31 30  1  0  0  0
 31 22  1  0  0  0
 31 11  1  0  0  0
  7  8  2  0  0  0
  9 10  2  0  0  0
 11 12  2  0  0  0
 14 30  2  0  0  0
 15 28  2  0  0  0
 22 23  2  0  0  0
 24 25  2  0  0  0
 26 27  2  0  0  0
  5  6  3  0  0  0
M  END
> <rmsd>
0.292259127

$$$$
CHEMBL577165_5TGZ


 27 30  0  0  0  0  0  0  0  0999 V2000
   42.7838   27.6043  321.4938 C   0  0  0  0  0
   43.4179   27.2155  320.2008 C   0  0  0  0  0
   44.1659   26.0809  319.9283 C   0  0  0  0  0
   44.5639   25.0269  320.8739 C   0  0  0  0  0
   45.7366   22.8184  321.2730 C   0  0  0  0  0
   46.7610   21.9610  320.5574 C   0  0  0  0  0
   46.3839   20.5300  320.8601 C   0  0  0  0  0
   44.8832   20.5474  321.0285 C   0  0  0  0  0
   44.5484   21.9187  321.5793 C   0  0  0  0  0
   44.1917   27.4620  316.6650 C   0  0  0  0  0
   44.3583   26.4372  315.7242 C   0  0  0  0  0
   44.6209   26.7413  314.3863 C   0  0  0  0  0
   44.7310   28.0725  313.9747 C   0  0  0  0  0
   44.5856   29.1064  314.9148 C   0  0  0  0  0
   44.3255   28.7954  316.2522 C   0  0  0  0  0
   43.3028   27.8570  318.9822 C   0  0  0  0  0
   41.6787   29.1789  317.6585 C   0  0  0  0  0
   41.0055   30.3774  317.7893 C   0  0  0  0  0
   41.4157   30.9352  318.9894 C   0  0  0  0  0
   42.3241   30.0564  319.5459 C   0  0  0  0  0
   44.2378   25.1045  322.0894 O   0  0  0  0  0
   45.3290   23.9135  320.4054 N   0  0  0  0  0
   44.4855   26.0584  318.6177 N   0  0  0  0  0
   43.9646   27.1352  318.0456 N   0  0  0  0  0
   42.4823   29.0069  318.7219 N   0  0  0  0  0
   45.0588   28.4082  312.2828 Cl  0  0  0  0  0
   44.7252   30.7949  314.4552 Cl  0  0  0  0  0
  1  2  1  0  0  0
  2  3  1  0  0  0
  3  4  1  0  0  0
  4 22  1  0  0  0
  5 22  1  0  0  0
  5  6  1  0  0  0
  6  7  1  0  0  0
  7  8  1  0  0  0
  8  9  1  0  0  0
  9  5  1  0  0  0
 11 12  1  0  0  0
 13 26  1  0  0  0
 13 14  1  0  0  0
 14 27  1  0  0  0
 15 10  1  0  0  0
 16 25  1  0  0  0
 18 19  1  0  0  0
 20 25  1  0  0  0
 24 23  1  0  0  0
 24 10  1  0  0  0
 24 16  1  0  0  0
 25 17  1  0  0  0
  3 23  2  0  0  0
  4 21  2  0  0  0
 10 11  2  0  0  0
 12 13  2  0  0  0
 14 15  2  0  0  0
 16  2  2  0  0  0
 17 18  2  0  0  0
 19 20  2  0  0  0
M  END
> <rmsd>
0.414451748

$$$$
CHEMBL579247_5TGZ


 27 30  0  0  0  0  0  0  0  0999 V2000
   42.7714   27.5853  321.4808 C   0  0  0  0  0
   43.3896   27.1800  320.1850 C   0  0  0  0  0
   44.1464   26.0475  319.9248 C   0  0  0  0  0
   44.5551   25.0085  320.8824 C   0  0  0  0  0
   45.7453   22.8134  321.3039 C   0  0  0  0  0
   46.7772   21.9575  320.5963 C   0  0  0  0  0
   46.3950   20.5245  320.8844 C   0  0  0  0  0
   44.8940   20.5441  321.0465 C   0  0  0  0  0
   44.5636   21.9077  321.6176 C   0  0  0  0  0
   44.1669   27.4064  316.6550 C   0  0  0  0  0
   44.6921   28.6640  316.3219 C   0  0  0  0  0
   44.9568   28.9919  314.9904 C   0  0  0  0  0
   44.7047   28.0621  313.9801 C   0  0  0  0  0
   44.1892   26.8044  314.3007 C   0  0  0  0  0
   43.9239   26.4679  315.6319 C   0  0  0  0  0
   43.2728   27.8099  318.9586 C   0  0  0  0  0
   42.1919   29.9532  319.5693 C   0  0  0  0  0
   41.3943   30.8997  318.9572 C   0  0  0  0  0
   41.2025   30.4743  317.6533 C   0  0  0  0  0
   41.8901   29.2846  317.5199 C   0  0  0  0  0
   44.2289   25.0964  322.0970 O   0  0  0  0  0
   45.3298   23.8968  320.4255 N   0  0  0  0  0
   44.4692   26.0139  318.6157 N   0  0  0  0  0
   43.9347   27.0771  318.0324 N   0  0  0  0  0
   42.4910   28.9865  318.6848 N   0  0  0  0  0
   45.0339   28.4728  312.3112 Cl  0  0  0  0  0
   43.2447   24.8847  315.9736 Cl  0  0  0  0  0
  1  2  1  0  0  0
  2  3  1  0  0  0
  3  4  1  0  0  0
  4 22  1  0  0  0
  5 22  1  0  0  0
  5  6  1  0  0  0
  6  7  1  0  0  0
  7  8  1  0  0  0
  8  9  1  0  0  0
  9  5  1  0  0  0
 11 12  1  0  0  0
 13 26  1  0  0  0
 13 14  1  0  0  0
 15 27  1  0  0  0
 15 10  1  0  0  0
 16 25  1  0  0  0
 18 19  1  0  0  0
 20 25  1  0  0  0
 24 23  1  0  0  0
 24 10  1  0  0  0
 24 16  1  0  0  0
 25 17  1  0  0  0
  3 23  2  0  0  0
  4 21  2  0  0  0
 10 11  2  0  0  0
 12 13  2  0  0  0
 14 15  2  0  0  0
 16  2  2  0  0  0
 17 18  2  0  0  0
 19 20  2  0  0  0
M  END
> <rmsd>
0.394760281

$$$$
CHEMBL526467_5TGZ


 32 34  0  0  0  0  0  0  0  0999 V2000
   42.5594   27.6996  321.4868 C   0  0  0  0  0
   43.2432   27.2894  320.2247 C   0  0  0  0  0
   43.9771   26.1339  320.0062 C   0  0  0  0  0
   44.2926   25.0773  320.9802 C   0  0  0  0  0
   45.4422   22.8400  321.3898 C   0  0  0  0  0
   46.2447   21.7044  320.7943 C   0  0  0  0  0
   45.2420   20.7589  320.1435 C   0  0  0  0  0
   46.9745   20.9279  321.8989 C   0  0  0  0  0
   47.9394   21.1359  319.1414 C   0  0  0  0  0
   48.1778   23.1147  320.3680 C   0  0  0  0  0
   44.2016   27.4705  316.7420 C   0  0  0  0  0
   43.7311   26.5957  315.7543 C   0  0  0  0  0
   43.9904   26.8478  314.4051 C   0  0  0  0  0
   44.7294   27.9732  314.0347 C   0  0  0  0  0
   45.2226   28.8389  315.0137 C   0  0  0  0  0
   44.9672   28.5934  316.3663 C   0  0  0  0  0
   43.2147   27.9355  318.9975 C   0  0  0  0  0
   42.4834   29.1868  318.6784 C   0  0  0  0  0
   41.9745   29.4096  317.3901 C   0  0  0  0  0
   41.2854   30.5878  317.0916 C   0  0  0  0  0
   41.0954   31.5546  318.0817 C   0  0  0  0  0
   41.5918   31.3414  319.3698 C   0  0  0  0  0
   42.2813   30.1623  319.6661 C   0  0  0  0  0
   43.8948   25.1739  322.1723 O   0  0  0  0  0
   45.0550   22.7847  322.5901 O   0  0  0  0  0
   45.0594   23.9435  320.5571 N   0  0  0  0  0
   47.1894   22.2200  319.7708 N   0  0  0  0  0
   44.3763   26.0946  318.7202 N   0  0  0  0  0
   43.9230   27.1836  318.1184 N   0  0  0  0  0
   45.0522   28.2904  312.3443 Cl  0  0  0  0  0
   45.6621   29.6793  317.5591 Cl  0  0  0  0  0
   40.2332   33.0311  317.7090 Cl  0  0  0  0  0
  1  2  1  0  0  0
  2  3  1  0  0  0
  3  4  1  0  0  0
  4 26  1  0  0  0
  6  5  1  0  0  0
  6  7  1  0  0  0
  6  8  1  0  0  0
  6 27  1  0  0  0
  9 27  1  0  0  0
 10 27  1  0  0  0
 12 13  1  0  0  0
 14 30  1  0  0  0
 14 15  1  0  0  0
 16 31  1  0  0  0
 16 11  1  0  0  0
 17 18  1  0  0  0
 19 20  1  0  0  0
 21 32  1  0  0  0
 21 22  1  0  0  0
 23 18  1  0  0  0
 26  5  1  0  0  0
 29 28  1  0  0  0
 29 11  1  0  0  0
 29 17  1  0  0  0
  3 28  2  0  0  0
  4 24  2  0  0  0
  5 25  2  0  0  0
 11 12  2  0  0  0
 13 14  2  0  0  0
 15 16  2  0  0  0
 17  2  2  0  0  0
 18 19  2  0  0  0
 20 21  2  0  0  0
 22 23  2  0  0  0
M  END
> <rmsd>
0.48729673

$$$$
CHEMBL447695_5TGZ


 46 51  0  0  0  0  0  0  0  0999 V2000
   46.8025   23.2515  323.1178 C   0  0  0  0  0
   46.3021   22.2062  322.1793 C   0  0  0  0  0
   45.4944   22.3642  321.0594 C   0  0  0  0  0
   44.6958   26.3185  319.8395 C   0  0  0  0  0
   44.4078   27.5924  316.5538 C   0  0  0  0  0
   44.6871   28.9162  316.1815 C   0  0  0  0  0
   44.8547   29.2546  314.8371 C   0  0  0  0  0
   44.7505   28.2708  313.8523 C   0  0  0  0  0
   44.4791   26.9488  314.2112 C   0  0  0  0  0
   44.3123   26.6016  315.5555 C   0  0  0  0  0
   43.5140   27.8968  318.8748 C   0  0  0  0  0
   42.5230   28.9645  318.6048 C   0  0  0  0  0
   41.7853   28.9672  317.4117 C   0  0  0  0  0
   40.8407   29.9668  317.1641 C   0  0  0  0  0
   40.6219   30.9701  318.1113 C   0  0  0  0  0
   41.3443   30.9712  319.3070 C   0  0  0  0  0
   42.2892   29.9710  319.5533 C   0  0  0  0  0
   43.7722   27.3131  320.1054 C   0  0  0  0  0
   43.1304   27.6272  321.4149 C   0  0  0  0  0
   45.6851   18.8384  321.0016 C   0  0  0  0  0
   44.4286   18.2195  321.0236 C   0  0  0  0  0
   44.3067   16.8570  320.7412 C   0  0  0  0  0
   45.4407   16.1051  320.4270 C   0  0  0  0  0
   46.6948   16.7181  320.3799 C   0  0  0  0  0
   46.8250   18.0814  320.6613 C   0  0  0  0  0
   46.4559   20.8324  322.3080 C   0  0  0  0  0
   47.1678   20.1271  323.4026 C   0  0  0  0  0
   46.7378   18.8648  323.8384 C   0  0  0  0  0
   47.4094   18.2015  324.8686 C   0  0  0  0  0
   48.5175   18.7971  325.4756 C   0  0  0  0  0
   48.9515   20.0562  325.0543 C   0  0  0  0  0
   48.2787   20.7177  324.0231 C   0  0  0  0  0
   45.0005   23.5804  320.4840 N   0  0  0  0  0
   44.9860   26.3103  318.5258 N   0  0  0  0  0
   44.2683   27.2602  317.9440 N   0  0  0  0  0
   45.1900   21.1588  320.5457 N   0  0  0  0  0
   45.7784   20.2387  321.2939 N   0  0  0  0  0
   45.4062   25.1889  320.9824 S   0  0  0  0  0
   44.8677   25.4413  322.3626 O   0  0  0  0  0
   46.8972   25.3749  320.9749 O   0  0  0  0  0
   44.9580   28.6945  312.1671 Cl  0  0  0  0  0
   43.9355   24.9308  315.9448 Cl  0  0  0  0  0
   39.4397   32.2227  317.8018 Cl  0  0  0  0  0
   45.2884   14.3975  320.0758 Cl  0  0  0  0  0
   48.4155   18.8145  320.5271 Cl  0  0  0  0  0
   49.3601   17.9672  326.7655 Cl  0  0  0  0  0
  1  2  1  0  0  0
  2  3  1  0  0  0
  3 33  1  0  0  0
  6  7  1  0  0  0
  8 41  1  0  0  0
  8  9  1  0  0  0
 10 42  1  0  0  0
 10  5  1  0  0  0
 11 12  1  0  0  0
 13 14  1  0  0  0
 15 43  1  0  0  0
 15 16  1  0  0  0
 17 12  1  0  0  0
 18  4  1  0  0  0
 19 18  1  0  0  0
 21 22  1  0  0  0
 23 44  1  0  0  0
 23 24  1  0  0  0
 25 45  1  0  0  0
 25 20  1  0  0  0
 26 27  1  0  0  0
 28 29  1  0  0  0
 30 46  1  0  0  0
 30 31  1  0  0  0
 32 27  1  0  0  0
 35 34  1  0  0  0
 35  5  1  0  0  0
 35 11  1  0  0  0
 37 36  1  0  0  0
 37 20  1  0  0  0
 37 26  1  0  0  0
 38 33  1  0  0  0
 38  4  1  0  0  0
  3 36  2  0  0  0
  4 34  2  0  0  0
  5  6  2  0  0  0
  7  8  2  0  0  0
  9 10  2  0  0  0
 11 18  2  0  0  0
 12 13  2  0  0  0
 14 15  2  0  0  0
 16 17  2  0  0  0
 20 21  2  0  0  0
 22 23  2  0  0  0
 24 25  2  0  0  0
 26  2  2  0  0  0
 27 28  2  0  0  0
 29 30  2  0  0  0
 31 32  2  0  0  0
 38 39  2  0  0  0
 38 40  2  0  0  0
M  END
> <rmsd>
0.169477209

$$$$
CHEMBL4087520_5TGZ


 39 42  0  0  0  0  0  0  0  0999 V2000
   42.6254   27.4439  321.2992 C   0  0  0  0  0
   43.2896   27.0733  320.0125 C   0  0  0  0  0
   43.9450   25.8857  319.7437 C   0  0  0  0  0
   43.9326   27.0656  317.9667 C   0  0  0  0  0
   42.6165   29.0863  318.6883 C   0  0  0  0  0
   42.6011   30.0467  319.7105 C   0  0  0  0  0
   41.9744   31.2804  319.5157 C   0  0  0  0  0
   41.3539   31.5731  318.2981 C   0  0  0  0  0
   41.3614   30.6145  317.2749 C   0  0  0  0  0
   41.9864   29.3809  317.4700 C   0  0  0  0  0
   39.3559   34.9643  316.8799 C   0  0  0  0  0
   38.3625   35.0124  318.0290 C   0  0  0  0  0
   37.8362   36.4234  318.2433 C   0  0  0  0  0
   44.2038   27.4702  316.5755 C   0  0  0  0  0
   44.9506   28.6262  316.2621 C   0  0  0  0  0
   45.1739   28.9661  314.9240 C   0  0  0  0  0
   44.6684   28.1644  313.8980 C   0  0  0  0  0
   43.9503   27.0072  314.2053 C   0  0  0  0  0
   43.7225   26.6604  315.5391 C   0  0  0  0  0
   44.1867   24.7658  320.6678 C   0  0  0  0  0
   46.3943   22.8965  321.8028 C   0  0  0  0  0
   46.7437   21.8101  322.8279 C   0  0  0  0  0
   46.1507   20.4486  322.4543 C   0  0  0  0  0
   46.1844   20.2388  320.9424 C   0  0  0  0  0
   45.4937   21.3911  320.1902 C   0  0  0  0  0
   44.3476   25.8780  318.4577 N   0  0  0  0  0
   43.2740   27.8176  318.8859 N   0  0  0  0  0
   44.8911   23.6109  320.2045 N   0  0  0  0  0
   45.1885   22.5365  321.0552 N   0  0  0  0  0
   40.7431   32.8196  318.1344 O   0  0  0  0  0
   40.9686   33.2858  315.5567 O   0  0  0  0  0
   38.8393   32.3785  316.3712 O   0  0  0  0  0
   43.7786   24.8186  321.8593 O   0  0  0  0  0
   39.9769   33.3093  316.6853 S   0  0  0  0  0
   37.2029   36.8737  317.0988 F   0  0  0  0  0
   36.9291   36.4119  319.2849 F   0  0  0  0  0
   38.8782   37.2753  318.5618 F   0  0  0  0  0
   44.9505   28.6013  312.2271 Cl  0  0  0  0  0
   45.6745   29.6365  317.5055 Cl  0  0  0  0  0
  1  2  1  0  0  0
  3 26  1  0  0  0
  3 20  1  0  0  0
  4 27  1  0  0  0
  4 14  1  0  0  0
  6  7  1  0  0  0
  8  9  1  0  0  0
  8 30  1  0  0  0
 10  5  1  0  0  0
 11 12  1  0  0  0
 12 13  1  0  0  0
 13 35  1  0  0  0
 13 36  1  0  0  0
 13 37  1  0  0  0
 15 16  1  0  0  0
 15 39  1  0  0  0
 17 18  1  0  0  0
 17 38  1  0  0  0
 19 14  1  0  0  0
 20 28  1  0  0  0
 21 29  1  0  0  0
 21 22  1  0  0  0
 22 23  1  0  0  0
 23 24  1  0  0  0
 24 25  1  0  0  0
 25 29  1  0  0  0
 27  5  1  0  0  0
 27  2  1  0  0  0
 28 29  1  0  0  0
 34 30  1  0  0  0
 34 11  1  0  0  0
  2  3  2  0  0  0
  4 26  2  0  0  0
  5  6  2  0  0  0
  7  8  2  0  0  0
  9 10  2  0  0  0
 14 15  2  0  0  0
 16 17  2  0  0  0
 18 19  2  0  0  0
 20 33  2  0  0  0
 34 31  2  0  0  0
 34 32  2  0  0  0
M  END
> <rmsd>
0.311696559

$$$$
CHEMBL1269769_5TGZ


 60 65  0  0  0  0  0  0  0  0999 V2000
   44.8326   17.6222  330.9511 C   0  0  0  0  0
   45.8082   16.7235  330.2667 C   0  0  0  0  0
   46.0731   16.6583  328.9086 C   0  0  0  0  0
   45.5090   17.5072  327.8472 C   0  0  0  0  0
   45.3694   18.0528  325.3799 C   0  0  0  0  0
   46.3785   19.1729  325.1890 C   0  0  0  0  0
   47.6819   18.6013  324.6591 C   0  0  0  0  0
   48.6603   19.7091  324.2995 C   0  0  0  0  0
   48.2437   20.4354  323.0238 C   0  0  0  0  0
   49.4794   19.4500  321.2940 C   0  0  0  0  0
   47.2761   20.0898  320.9072 C   0  0  0  0  0
   45.8256   19.7067  321.1835 C   0  0  0  0  0
   45.1663   20.6736  322.1596 C   0  0  0  0  0
   44.6995   21.9367  321.4550 C   0  0  0  0  0
   45.8635   22.8893  321.2270 C   0  0  0  0  0
   44.5793   25.0403  320.8214 C   0  0  0  0  0
   44.1936   26.1042  319.8810 C   0  0  0  0  0
   44.2789   27.5238  316.6449 C   0  0  0  0  0
   43.8405   26.6430  315.6482 C   0  0  0  0  0
   44.0438   26.9439  314.3002 C   0  0  0  0  0
   44.6939   28.1253  313.9389 C   0  0  0  0  0
   45.1570   28.9980  314.9261 C   0  0  0  0  0
   44.9580   28.7033  316.2783 C   0  0  0  0  0
   43.3091   27.8780  318.9262 C   0  0  0  0  0
   42.4970   29.0864  318.6457 C   0  0  0  0  0
   41.9381   29.2928  317.3762 C   0  0  0  0  0
   41.1723   30.4308  317.1133 C   0  0  0  0  0
   40.9554   31.3734  318.1206 C   0  0  0  0  0
   41.4982   31.1747  319.3913 C   0  0  0  0  0
   42.2649   30.0357  319.6520 C   0  0  0  0  0
   43.3934   27.2066  320.1367 C   0  0  0  0  0
   42.7023   27.5430  321.4146 C   0  0  0  0  0
   48.2333   14.0584  329.9420 C   0  0  0  0  0
   47.9954   12.8398  329.2935 C   0  0  0  0  0
   48.9247   11.8003  329.3789 C   0  0  0  0  0
   50.1024   11.9749  330.1077 C   0  0  0  0  0
   50.3586   13.1932  330.7393 C   0  0  0  0  0
   49.4344   14.2390  330.6584 C   0  0  0  0  0
   46.5725   15.7122  330.8310 C   0  0  0  0  0
   46.5770   15.3036  332.2575 C   0  0  0  0  0
   46.8431   13.9742  332.6197 C   0  0  0  0  0
   46.8443   13.5887  333.9627 C   0  0  0  0  0
   46.5742   14.5295  334.9578 C   0  0  0  0  0
   46.2991   15.8544  334.6095 C   0  0  0  0  0
   46.2991   16.2376  333.2655 C   0  0  0  0  0
   44.8094   18.5140  328.1373 O   0  0  0  0  0
   44.1462   25.0463  322.0047 O   0  0  0  0  0
   45.7760   17.1882  326.4789 N   0  0  0  0  0
   48.1614   19.5055  321.9036 N   0  0  0  0  0
   45.4505   23.9954  320.3785 N   0  0  0  0  0
   44.5755   26.1198  318.5888 N   0  0  0  0  0
   44.0479   27.1919  318.0198 N   0  0  0  0  0
   46.9588   15.6712  328.6721 N   0  0  0  0  0
   47.2651   15.1105  329.8319 N   0  0  0  0  0
   44.9456   28.5034  312.2489 Cl  0  0  0  0  0
   45.6111   29.8050  317.4796 Cl  0  0  0  0  0
   39.9956   32.7995  317.7937 Cl  0  0  0  0  0
   51.2665   10.6733  330.2169 Cl  0  0  0  0  0
   49.8387   15.7702  331.4164 Cl  0  0  0  0  0
   46.5814   14.0504  336.6404 Cl  0  0  0  0  0
  1  2  1  0  0  0
  2  3  1  0  0  0
  3  4  1  0  0  0
  4 48  1  0  0  0
  5 48  1  0  0  0
  5  6  1  0  0  0
  6  7  1  0  0  0
  7  8  1  0  0  0
  8  9  1  0  0  0
  9 49  1  0  0  0
 10 49  1  0  0  0
 11 49  1  0  0  0
 11 12  1  0  0  0
 12 13  1  0  0  0
 13 14  1  0  0  0
 14 15  1  0  0  0
 15 50  1  0  0  0
 16 17  1  0  0  0
 19 20  1  0  0  0
 21 55  1  0  0  0
 21 22  1  0  0  0
 23 56  1  0  0  0
 23 18  1  0  0  0
 24 25  1  0  0  0
 26 27  1  0  0  0
 28 57  1  0  0  0
 28 29  1  0  0  0
 30 25  1  0  0  0
 31 17  1  0  0  0
 32 31  1  0  0  0
 34 35  1  0  0  0
 36 58  1  0  0  0
 36 37  1  0  0  0
 38 59  1  0  0  0
 38 33  1  0  0  0
 39 40  1  0  0  0
 41 42  1  0  0  0
 43 60  1  0  0  0
 43 44  1  0  0  0
 45 40  1  0  0  0
 50 16  1  0  0  0
 52 51  1  0  0  0
 52 18  1  0  0  0
 52 24  1  0  0  0
 54 53  1  0  0  0
 54 33  1  0  0  0
 54 39  1  0  0  0
  3 53  2  0  0  0
  4 46  2  0  0  0
 16 47  2  0  0  0
 17 51  2  0  0  0
 18 19  2  0  0  0
 20 21  2  0  0  0
 22 23  2  0  0  0
 24 31  2  0  0  0
 25 26  2  0  0  0
 27 28  2  0  0  0
 29 30  2  0  0  0
 33 34  2  0  0  0
 35 36  2  0  0  0
 37 38  2  0  0  0
 39  2  2  0  0  0
 40 41  2  0  0  0
 42 43  2  0  0  0
 44 45  2  0  0  0
M  END
> <rmsd>
0.322139472

$$$$
CHEMBL462686_5TGZ


 35 38  0  0  0  0  0  0  0  0999 V2000
   42.7879   27.5426  321.3690 C   0  0  0  0  0
   43.3721   27.1592  320.0502 C   0  0  0  0  0
   44.0907   26.0132  319.7493 C   0  0  0  0  0
   44.4793   24.9344  320.6704 C   0  0  0  0  0
   44.4386   21.8517  321.0895 C   0  0  0  0  0
   44.3778   21.1459  322.4468 C   0  0  0  0  0
   45.7388   20.7278  323.0130 C   0  0  0  0  0
   46.6565   20.1113  321.9638 C   0  0  0  0  0
   47.4741   21.2003  321.2764 C   0  0  0  0  0
   46.6296   22.0158  320.3015 C   0  0  0  0  0
   44.1293   27.4743  316.5297 C   0  0  0  0  0
   44.7566   28.6946  316.2378 C   0  0  0  0  0
   45.0221   29.0554  314.9150 C   0  0  0  0  0
   44.6684   28.1958  313.8732 C   0  0  0  0  0
   44.0514   26.9745  314.1538 C   0  0  0  0  0
   43.7850   26.6053  315.4760 C   0  0  0  0  0
   43.2552   27.8354  318.8470 C   0  0  0  0  0
   42.4940   29.0843  318.6225 C   0  0  0  0  0
   42.2474   30.0578  319.5874 C   0  0  0  0  0
   41.4534   31.1143  319.1196 C   0  0  0  0  0
   41.0763   30.9515  317.7955 C   0  0  0  0  0
   40.2606   31.8664  317.0500 C   0  0  0  0  0
   39.5748   32.6343  316.4230 C   0  0  0  0  0
   38.7402   33.5677  315.6601 C   0  0  0  0  0
   37.3845   33.7355  316.3250 C   0  0  0  0  0
   36.5059   32.5304  316.0429 C   0  0  0  0  0
   36.7112   34.9774  315.7802 C   0  0  0  0  0
   44.1702   24.9935  321.8909 O   0  0  0  0  0
   45.2156   23.8140  320.1733 N   0  0  0  0  0
   45.5857   22.7487  321.0065 N   0  0  0  0  0
   44.3989   26.0116  318.4379 N   0  0  0  0  0
   43.8909   27.1087  317.8961 N   0  0  0  0  0
   44.9971   28.6489  312.2154 Cl  0  0  0  0  0
   42.9794   25.0733  315.7727 Cl  0  0  0  0  0
   41.7060   29.5177  317.1978 S   0  0  0  0  0
  1  2  1  0  0  0
  2  3  1  0  0  0
  3  4  1  0  0  0
  4 29  1  0  0  0
  5 30  1  0  0  0
  5  6  1  0  0  0
  6  7  1  0  0  0
  7  8  1  0  0  0
  8  9  1  0  0  0
  9 10  1  0  0  0
 10 30  1  0  0  0
 12 13  1  0  0  0
 14 33  1  0  0  0
 14 15  1  0  0  0
 16 34  1  0  0  0
 16 11  1  0  0  0
 17 18  1  0  0  0
 18 35  1  0  0  0
 19 20  1  0  0  0
 21 22  1  0  0  0
 21 35  1  0  0  0
 24 23  1  0  0  0
 24 25  1  0  0  0
 25 26  1  0  0  0
 25 27  1  0  0  0
 29 30  1  0  0  0
 32 31  1  0  0  0
 32 11  1  0  0  0
 32 17  1  0  0  0
  3 31  2  0  0  0
  4 28  2  0  0  0
 11 12  2  0  0  0
 13 14  2  0  0  0
 15 16  2  0  0  0
 17  2  2  0  0  0
 18 19  2  0  0  0
 20 21  2  0  0  0
 22 23  3  0  0  0
M  END
> <rmsd>
0.217785835

$$$$
CHEMBL2022403_5TGZ


 31 34  0  0  0  0  0  0  0  0999 V2000
   42.7644   27.4641  321.3992 C   0  0  0  0  0
   43.3509   27.0827  320.0805 C   0  0  0  0  0
   44.0405   25.9211  319.7715 C   0  0  0  0  0
   44.3976   24.8232  320.6835 C   0  0  0  0  0
   45.5327   22.5324  320.8997 C   0  0  0  0  0
   45.2832   22.3896  322.2736 C   0  0  0  0  0
   45.7141   21.2477  322.9553 C   0  0  0  0  0
   46.3970   20.2407  322.2682 C   0  0  0  0  0
   46.6487   20.3763  320.9004 C   0  0  0  0  0
   46.2173   21.5189  320.2198 C   0  0  0  0  0
   44.1213   27.4065  316.5602 C   0  0  0  0  0
   44.6943   28.6545  316.2713 C   0  0  0  0  0
   44.9682   29.0210  314.9520 C   0  0  0  0  0
   44.6771   28.1403  313.9089 C   0  0  0  0  0
   44.1127   26.8930  314.1847 C   0  0  0  0  0
   43.8376   26.5177  315.5034 C   0  0  0  0  0
   43.2567   27.7739  318.8827 C   0  0  0  0  0
   42.5326   29.0477  318.6628 C   0  0  0  0  0
   42.5042   30.0293  319.6643 C   0  0  0  0  0
   41.8097   31.2258  319.4646 C   0  0  0  0  0
   41.1340   31.4485  318.2622 C   0  0  0  0  0
   41.1486   30.4734  317.2620 C   0  0  0  0  0
   41.8427   29.2774  317.4632 C   0  0  0  0  0
   44.0821   24.8859  321.9021 O   0  0  0  0  0
   47.3270   19.3765  320.2173 O   0  0  0  0  0
   45.1065   23.6884  320.1660 N   0  0  0  0  0
   44.3528   25.9233  318.4612 N   0  0  0  0  0
   43.8750   27.0375  317.9263 N   0  0  0  0  0
   45.0179   28.5996  312.2551 Cl  0  0  0  0  0
   43.0931   24.9525  315.7869 Cl  0  0  0  0  0
   40.2655   32.9469  318.0109 Cl  0  0  0  0  0
  1  2  1  0  0  0
  2  3  1  0  0  0
  3  4  1  0  0  0
  4 26  1  0  0  0
  6  7  1  0  0  0
  8  9  1  0  0  0
  9 25  1  0  0  0
 10  5  1  0  0  0
 12 13  1  0  0  0
 14 29  1  0  0  0
 14 15  1  0  0  0
 16 30  1  0  0  0
 16 11  1  0  0  0
 17 18  1  0  0  0
 19 20  1  0  0  0
 21 31  1  0  0  0
 21 22  1  0  0  0
 23 18  1  0  0  0
 26  5  1  0  0  0
 28 27  1  0  0  0
 28 11  1  0  0  0
 28 17  1  0  0  0
  3 27  2  0  0  0
  4 24  2  0  0  0
  5  6  2  0  0  0
  7  8  2  0  0  0
  9 10  2  0  0  0
 11 12  2  0  0  0
 13 14  2  0  0  0
 15 16  2  0  0  0
 17  2  2  0  0  0
 18 19  2  0  0  0
 20 21  2  0  0  0
 22 23  2  0  0  0
M  END
> <rmsd>
0.24852778

$$$$
CHEMBL493302_5TGZ


 35 39  0  0  0  0  0  0  0  0999 V2000
   42.4431   27.3879  321.3183 C   0  0  0  0  0
   43.0983   27.0354  320.0246 C   0  0  0  0  0
   43.8408   25.8991  319.7451 C   0  0  0  0  0
   44.1068   24.7624  320.6401 C   0  0  0  0  0
   45.6623   21.5054  320.1254 C   0  0  0  0  0
   45.9475   20.2274  320.9253 C   0  0  0  0  0
   46.1715   20.5100  322.4130 C   0  0  0  0  0
   46.9702   21.7967  322.6132 C   0  0  0  0  0
   46.3573   22.9836  321.8496 C   0  0  0  0  0
   44.1800   27.4877  316.6029 C   0  0  0  0  0
   43.1094   27.7842  315.7461 C   0  0  0  0  0
   43.3416   28.1071  314.4074 C   0  0  0  0  0
   44.6465   28.1301  313.9117 C   0  0  0  0  0
   45.7192   27.8286  314.7539 C   0  0  0  0  0
   45.4943   27.5022  316.0949 C   0  0  0  0  0
   43.1688   27.8024  318.8721 C   0  0  0  0  0
   42.6096   29.1605  318.6860 C   0  0  0  0  0
   43.1130   30.1316  317.8237 C   0  0  0  0  0
   42.3975   31.3364  317.8641 C   0  0  0  0  0
   41.3423   31.2982  318.7621 C   0  0  0  0  0
   40.4382   32.3815  319.0216 C   0  0  0  0  0
   39.6777   33.2909  319.2422 C   0  0  0  0  0
   38.7535   34.3943  319.5108 C   0  0  0  0  0
   39.4335   35.4508  320.3637 C   0  0  0  0  0
   38.5501   35.6751  321.5771 C   0  0  0  0  0
   37.2298   35.0062  321.2677 C   0  0  0  0  0
   37.5667   33.8923  320.3052 C   0  0  0  0  0
   43.6232   24.7380  321.8039 O   0  0  0  0  0
   44.9175   23.6781  320.1806 N   0  0  0  0  0
   45.2237   22.5863  321.0056 N   0  0  0  0  0
   44.3207   25.9770  318.4891 N   0  0  0  0  0
   43.9181   27.1262  317.9670 N   0  0  0  0  0
   44.9384   28.5367  312.2350 Cl  0  0  0  0  0
   46.8815   27.1633  317.1173 Cl  0  0  0  0  0
   41.2843   29.7977  319.5073 S   0  0  0  0  0
  1  2  1  0  0  0
  2  3  1  0  0  0
  3  4  1  0  0  0
  4 29  1  0  0  0
  5 30  1  0  0  0
  5  6  1  0  0  0
  6  7  1  0  0  0
  7  8  1  0  0  0
  8  9  1  0  0  0
  9 30  1  0  0  0
 11 12  1  0  0  0
 13 33  1  0  0  0
 13 14  1  0  0  0
 15 34  1  0  0  0
 15 10  1  0  0  0
 16 17  1  0  0  0
 17 35  1  0  0  0
 18 19  1  0  0  0
 20 21  1  0  0  0
 20 35  1  0  0  0
 23 22  1  0  0  0
 23 24  1  0  0  0
 24 25  1  0  0  0
 25 26  1  0  0  0
 26 27  1  0  0  0
 27 23  1  0  0  0
 29 30  1  0  0  0
 32 31  1  0  0  0
 32 10  1  0  0  0
 32 16  1  0  0  0
  3 31  2  0  0  0
  4 28  2  0  0  0
 10 11  2  0  0  0
 12 13  2  0  0  0
 14 15  2  0  0  0
 16  2  2  0  0  0
 17 18  2  0  0  0
 19 20  2  0  0  0
 21 22  3  0  0  0
M  END
> <rmsd>
0.399659246

$$$$
CHEMBL480539_6KQI


 34 37  0  0  0  0  0  0  0  0999 V2000
   48.0941   18.5309  324.6538 C   0  0  0  0  0
   46.8050   19.6023  322.8347 C   0  0  0  0  0
   46.3628   19.5539  321.5083 C   0  0  0  0  0
   45.5584   20.5757  320.9945 C   0  0  0  0  0
   45.1882   21.6527  321.8061 C   0  0  0  0  0
   44.3349   22.7426  321.2509 C   0  0  0  0  0
   46.0426   24.0695  319.9272 C   0  0  0  0  0
   46.7989   25.3391  319.7469 C   0  0  0  0  0
   45.1704   27.3392  317.3318 C   0  0  0  0  0
   44.9409   27.7956  315.9507 C   0  0  0  0  0
   46.0271   28.3101  315.2310 C   0  0  0  0  0
   45.8598   28.7592  313.9191 C   0  0  0  0  0
   44.6041   28.6901  313.3131 C   0  0  0  0  0
   43.5195   28.1561  314.0124 C   0  0  0  0  0
   43.6776   27.7042  315.3263 C   0  0  0  0  0
   44.5062   27.7226  318.4901 C   0  0  0  0  0
   43.4734   28.7710  318.6490 C   0  0  0  0  0
   43.5129   29.8960  317.8110 C   0  0  0  0  0
   42.5655   30.9134  317.9349 C   0  0  0  0  0
   41.5660   30.8197  318.9030 C   0  0  0  0  0
   41.5117   29.7071  319.7440 C   0  0  0  0  0
   42.4574   28.6831  319.6288 C   0  0  0  0  0
   45.6295   21.7092  323.1327 C   0  0  0  0  0
   46.4347   20.6883  323.6460 C   0  0  0  0  0
   47.6073   18.5653  323.3192 O   0  0  0  0  0
   46.1824   23.1365  319.0921 O   0  0  0  0  0
   45.1260   23.9433  321.0162 N   0  0  0  0  0
   46.0014   26.2819  318.9816 N   0  0  0  0  0
   46.1058   26.4339  317.6710 N   0  0  0  0  0
   45.0522   27.0371  319.5118 N   0  0  0  0  0
   44.3931   29.2562  311.6710 Cl  0  0  0  0  0
   42.2909   26.9666  316.1161 Cl  0  0  0  0  0
   40.3756   32.0928  319.0584 Cl  0  0  0  0  0
   42.2826   27.2916  320.6897 Cl  0  0  0  0  0
  1 25  1  0  0  0
  2 25  1  0  0  0
  3  4  1  0  0  0
  5 23  1  0  0  0
  6  5  1  0  0  0
  6 27  1  0  0  0
  8  7  1  0  0  0
  8 28  1  0  0  0
  9 10  1  0  0  0
  9 16  1  0  0  0
 11 12  1  0  0  0
 13 31  1  0  0  0
 13 14  1  0  0  0
 15 32  1  0  0  0
 15 10  1  0  0  0
 16 17  1  0  0  0
 18 19  1  0  0  0
 20 33  1  0  0  0
 20 21  1  0  0  0
 22 34  1  0  0  0
 22 17  1  0  0  0
 24  2  1  0  0  0
 27  7  1  0  0  0
 28 29  1  0  0  0
 28 30  1  0  0  0
  2  3  2  0  0  0
  4  5  2  0  0  0
  7 26  2  0  0  0
  9 29  2  0  0  0
 10 11  2  0  0  0
 12 13  2  0  0  0
 14 15  2  0  0  0
 16 30  2  0  0  0
 17 18  2  0  0  0
 19 20  2  0  0  0
 21 22  2  0  0  0
 23 24  2  0  0  0
M  END
> <rmsd>
0.822891235

$$$$
CHEMBL271824_5TGZ


 30 33  0  0  0  0  0  0  0  0999 V2000
   43.9422   27.1509  317.9815 N   0  0  0  0  0
   44.4516   26.0649  318.5474 N   0  0  0  0  0
   42.5428   29.0695  318.6879 N   0  0  0  0  0
   45.2621   23.8953  320.3231 N   0  0  0  0  0
   44.0038   26.0028  319.8195 C   0  0  0  0  0
   43.1781   27.0871  320.0706 C   0  0  0  0  0
   43.1649   27.7908  318.8858 C   0  0  0  0  0
   43.1621   30.2461  318.4806 C   0  0  0  0  0
   42.2441   31.2735  318.3735 C   0  0  0  0  0
   40.9936   30.6877  318.5291 C   0  0  0  0  0
   41.2258   29.3397  318.7274 C   0  0  0  0  0
   40.1562   28.3206  318.9262 C   0  0  0  0  0
   44.6405   30.4268  318.4110 C   0  0  0  0  0
   42.5191   27.4690  321.3526 C   0  0  0  0  0
   44.3793   24.9334  320.7567 C   0  0  0  0  0
   45.6568   22.7891  321.1816 C   0  0  0  0  0
   46.8591   22.0764  320.5682 C   0  0  0  0  0
   47.2778   20.8993  321.4452 C   0  0  0  0  0
   46.1159   19.9223  321.6047 C   0  0  0  0  0
   44.9110   20.6324  322.2161 C   0  0  0  0  0
   44.4934   21.8091  321.3386 C   0  0  0  0  0
   44.1796   27.5011  316.6060 C   0  0  0  0  0
   45.2561   26.9274  315.9150 C   0  0  0  0  0
   45.4870   27.2433  314.5740 C   0  0  0  0  0
   44.6419   28.1320  313.9038 C   0  0  0  0  0
   43.5534   28.7034  314.5831 C   0  0  0  0  0
   43.3272   28.3813  315.9236 C   0  0  0  0  0
   43.9290   24.9311  321.9344 O   0  0  0  0  0
   42.4569   29.8220  313.7907 Cl  0  0  0  0  0
   44.9712   28.5024  312.2195 Cl  0  0  0  0  0
  1  2  1  0  0  0
  1 22  1  0  0  0
  3  8  1  0  0  0
  5  6  1  0  0  0
  5 15  1  0  0  0
  7  3  1  0  0  0
  7  1  1  0  0  0
  9 10  1  0  0  0
 11  3  1  0  0  0
 12 11  1  0  0  0
 13  8  1  0  0  0
 14  6  1  0  0  0
 15  4  1  0  0  0
 16  4  1  0  0  0
 16 17  1  0  0  0
 17 18  1  0  0  0
 18 19  1  0  0  0
 19 20  1  0  0  0
 20 21  1  0  0  0
 21 16  1  0  0  0
 23 24  1  0  0  0
 25 26  1  0  0  0
 25 30  1  0  0  0
 26 29  1  0  0  0
 27 22  1  0  0  0
  5  2  2  0  0  0
  6  7  2  0  0  0
  8  9  2  0  0  0
 10 11  2  0  0  0
 15 28  2  0  0  0
 22 23  2  0  0  0
 24 25  2  0  0  0
 26 27  2  0  0  0
M  END
> <rmsd>
0.336537063

$$$$
CHEMBL418721_5TGZ


 32 36  0  0  0  0  0  0  0  0999 V2000
   42.7513   27.6966  321.2404 C   0  0  0  0  0
   43.3788   27.2903  319.9462 C   0  0  0  0  0
   44.1168   26.1444  319.7162 C   0  0  0  0  0
   44.4926   25.1092  320.6923 C   0  0  0  0  0
   46.6577   22.1793  320.4935 C   0  0  0  0  0
   46.4341   20.7156  320.8196 C   0  0  0  0  0
   47.3282   20.2974  321.9745 C   0  0  0  0  0
   46.4803   20.3860  323.2230 C   0  0  0  0  0
   45.0610   20.1574  322.7556 C   0  0  0  0  0
   45.0050   20.6280  321.3122 C   0  0  0  0  0
   44.4713   22.0454  321.2488 C   0  0  0  0  0
   43.9110   27.1959  317.8680 C   0  0  0  0  0
   44.1273   27.5658  316.4523 C   0  0  0  0  0
   44.4998   28.8823  316.1424 C   0  0  0  0  0
   44.7439   29.2614  314.8211 C   0  0  0  0  0
   44.6242   28.3244  313.7942 C   0  0  0  0  0
   44.2604   27.0090  314.0885 C   0  0  0  0  0
   44.0162   26.6200  315.4096 C   0  0  0  0  0
   42.4751   29.1466  318.5466 C   0  0  0  0  0
   42.5389   30.2198  319.4479 C   0  0  0  0  0
   41.7840   31.3750  319.2266 C   0  0  0  0  0
   40.9570   31.4648  318.1040 C   0  0  0  0  0
   40.8816   30.3986  317.2043 C   0  0  0  0  0
   41.6359   29.2434  317.4257 C   0  0  0  0  0
   44.1542   25.2163  321.9017 O   0  0  0  0  0
   45.2507   23.9766  320.2607 N   0  0  0  0  0
   45.6097   22.9497  321.1457 N   0  0  0  0  0
   44.4569   26.0864  318.4136 N   0  0  0  0  0
   43.2473   27.9536  318.7786 N   0  0  0  0  0
   44.9276   28.7983  312.1373 Cl  0  0  0  0  0
   43.5235   24.9573  315.6989 Cl  0  0  0  0  0
   40.0128   32.9119  317.8264 Cl  0  0  0  0  0
  1  2  1  0  0  0
  3  4  1  0  0  0
  3 28  1  0  0  0
  4 26  1  0  0  0
  5 27  1  0  0  0
  6  5  1  0  0  0
  6  7  1  0  0  0
  7  8  1  0  0  0
  8  9  1  0  0  0
 10  9  1  0  0  0
 10 11  1  0  0  0
 10  6  1  0  0  0
 11 27  1  0  0  0
 12 13  1  0  0  0
 12 29  1  0  0  0
 14 15  1  0  0  0
 16 30  1  0  0  0
 16 17  1  0  0  0
 18 31  1  0  0  0
 18 13  1  0  0  0
 20 21  1  0  0  0
 22 32  1  0  0  0
 22 23  1  0  0  0
 24 19  1  0  0  0
 26 27  1  0  0  0
 29 19  1  0  0  0
 29  2  1  0  0  0
  2  3  2  0  0  0
  4 25  2  0  0  0
 12 28  2  0  0  0
 13 14  2  0  0  0
 15 16  2  0  0  0
 17 18  2  0  0  0
 19 20  2  0  0  0
 21 22  2  0  0  0
 23 24  2  0  0  0
M  END
> <rmsd>
0.443779022

$$$$
CHEMBL2022404_5TGZ


 39 42  0  0  0  0  0  0  0  0999 V2000
   46.7156   19.4247  328.6432 C   0  0  0  0  0
   45.2947   19.6488  328.1693 C   0  0  0  0  0
   44.7279   21.4525  326.5903 C   0  0  0  0  0
   44.7756   22.0067  325.1955 C   0  0  0  0  0
   43.3502   22.2232  324.7059 C   0  0  0  0  0
   45.5146   23.3373  325.2230 C   0  0  0  0  0
   45.6975   21.2463  322.9687 C   0  0  0  0  0
   46.3766   20.2382  322.2773 C   0  0  0  0  0
   46.6341   20.3693  320.9102 C   0  0  0  0  0
   46.2126   21.5121  320.2255 C   0  0  0  0  0
   45.5322   22.5301  320.9007 C   0  0  0  0  0
   44.4132   24.8274  320.6846 C   0  0  0  0  0
   44.0547   25.9243  319.7721 C   0  0  0  0  0
   44.1283   27.4075  316.5596 C   0  0  0  0  0
   44.6888   28.6609  316.2697 C   0  0  0  0  0
   44.9594   29.0291  314.9503 C   0  0  0  0  0
   44.6772   28.1449  313.9081 C   0  0  0  0  0
   44.1257   26.8921  314.1847 C   0  0  0  0  0
   43.8540   26.5149  315.5035 C   0  0  0  0  0
   43.2652   27.7738  318.8823 C   0  0  0  0  0
   42.5328   29.0425  318.6609 C   0  0  0  0  0
   41.8310   29.2602  317.4661 C   0  0  0  0  0
   41.1297   30.4518  317.2628 C   0  0  0  0  0
   41.1202   31.4340  318.2562 C   0  0  0  0  0
   41.8084   31.2232  319.4535 C   0  0  0  0  0
   42.5100   30.0310  319.6554 C   0  0  0  0  0
   43.3629   27.0847  320.0808 C   0  0  0  0  0
   42.7760   27.4661  321.3992 C   0  0  0  0  0
   45.2778   22.3907  322.2723 C   0  0  0  0  0
   45.3124   20.2135  326.8670 O   0  0  0  0  0
   44.1595   22.1063  327.5088 O   0  0  0  0  0
   45.4577   21.0780  324.3422 O   0  0  0  0  0
   44.1058   24.8951  321.9050 O   0  0  0  0  0
   45.1143   23.6883  320.1658 N   0  0  0  0  0
   44.3657   25.9258  318.4615 N   0  0  0  0  0
   43.8843   27.0381  317.9260 N   0  0  0  0  0
   45.0151   28.6061  312.2540 Cl  0  0  0  0  0
   43.1279   24.9409  315.7873 Cl  0  0  0  0  0
   40.2433   32.9270  318.0019 Cl  0  0  0  0  0
  1  2  1  0  0  0
  2 30  1  0  0  0
  3 30  1  0  0  0
  4  3  1  0  0  0
  4  5  1  0  0  0
  4  6  1  0  0  0
  4 32  1  0  0  0
  7 32  1  0  0  0
  8  9  1  0  0  0
 10 11  1  0  0  0
 11 34  1  0  0  0
 12 13  1  0  0  0
 15 16  1  0  0  0
 17 37  1  0  0  0
 17 18  1  0  0  0
 19 38  1  0  0  0
 19 14  1  0  0  0
 20 21  1  0  0  0
 22 23  1  0  0  0
 24 39  1  0  0  0
 24 25  1  0  0  0
 26 21  1  0  0  0
 27 13  1  0  0  0
 28 27  1  0  0  0
 29  7  1  0  0  0
 34 12  1  0  0  0
 36 35  1  0  0  0
 36 14  1  0  0  0
 36 20  1  0  0  0
  3 31  2  0  0  0
  7  8  2  0  0  0
  9 10  2  0  0  0
 11 29  2  0  0  0
 12 33  2  0  0  0
 13 35  2  0  0  0
 14 15  2  0  0  0
 16 17  2  0  0  0
 18 19  2  0  0  0
 20 27  2  0  0  0
 21 22  2  0  0  0
 23 24  2  0  0  0
 25 26  2  0  0  0
M  END
> <rmsd>
0.242106661

$$$$
CHEMBL1909846_5TGZ


 30 33  0  0  0  0  0  0  0  0999 V2000
   42.6504   27.2117  321.2480 C   0  0  0  0  0
   43.2931   26.8855  319.9425 C   0  0  0  0  0
   44.0869   25.7936  319.6255 C   0  0  0  0  0
   44.4342   24.6619  320.4977 C   0  0  0  0  0
   45.7053   22.4542  320.7642 C   0  0  0  0  0
   46.5157   22.8705  321.9931 C   0  0  0  0  0
   46.9514   21.6377  322.7798 C   0  0  0  0  0
   45.7326   20.8171  323.1928 C   0  0  0  0  0
   44.9476   20.3843  321.9575 C   0  0  0  0  0
   44.4959   21.6071  321.1641 C   0  0  0  0  0
   44.2623   27.4742  316.5022 C   0  0  0  0  0
   43.1928   28.0311  315.7830 C   0  0  0  0  0
   43.3598   28.4396  314.4588 C   0  0  0  0  0
   44.5998   28.2943  313.8363 C   0  0  0  0  0
   45.6736   27.7456  314.5395 C   0  0  0  0  0
   45.5149   27.3312  315.8657 C   0  0  0  0  0
   43.2955   27.6537  318.7983 C   0  0  0  0  0
   43.3009   30.1074  318.4000 C   0  0  0  0  0
   42.3888   31.1432  318.3324 C   0  0  0  0  0
   41.1420   30.5717  318.5510 C   0  0  0  0  0
   41.3689   29.2229  318.7481 C   0  0  0  0  0
   43.9846   24.6046  321.6741 O   0  0  0  0  0
   45.2878   23.6245  319.9981 N   0  0  0  0  0
   44.5303   25.9137  318.3559 N   0  0  0  0  0
   44.0572   27.0488  317.8608 N   0  0  0  0  0
   42.6800   28.9412  318.6516 N   0  0  0  0  0
   44.8115   28.8077  312.1769 Cl  0  0  0  0  0
   46.9262   26.7065  316.7049 Cl  0  0  0  0  0
   45.0382   30.3053  318.2378 Cl  0  0  0  0  0
   40.1054   28.0344  319.0187 Cl  0  0  0  0  0
  1  2  1  0  0  0
  2  3  1  0  0  0
  3  4  1  0  0  0
  4 23  1  0  0  0
  5 23  1  0  0  0
  5  6  1  0  0  0
  6  7  1  0  0  0
  7  8  1  0  0  0
  8  9  1  0  0  0
  9 10  1  0  0  0
 10  5  1  0  0  0
 12 13  1  0  0  0
 14 27  1  0  0  0
 14 15  1  0  0  0
 16 28  1  0  0  0
 16 11  1  0  0  0
 17 26  1  0  0  0
 18 29  1  0  0  0
 19 20  1  0  0  0
 21 30  1  0  0  0
 21 26  1  0  0  0
 25 24  1  0  0  0
 25 11  1  0  0  0
 25 17  1  0  0  0
 26 18  1  0  0  0
  3 24  2  0  0  0
  4 22  2  0  0  0
 11 12  2  0  0  0
 13 14  2  0  0  0
 15 16  2  0  0  0
 17  2  2  0  0  0
 18 19  2  0  0  0
 20 21  2  0  0  0
M  END
> <rmsd>
0.413213909

$$$$
CHEMBL1909852_5TGZ


 31 34  0  0  0  0  0  0  0  0999 V2000
   43.1234   28.2736  321.7996 C   0  0  0  0  0
   42.5104   27.0256  321.1937 C   0  0  0  0  0
   43.1362   26.7273  319.8690 C   0  0  0  0  0
   43.9481   25.6520  319.5353 C   0  0  0  0  0
   44.3491   24.5366  320.4059 C   0  0  0  0  0
   45.6855   22.3657  320.6540 C   0  0  0  0  0
   44.5098   21.4893  321.0895 C   0  0  0  0  0
   45.0140   20.2846  321.8790 C   0  0  0  0  0
   45.8176   20.7469  323.0914 C   0  0  0  0  0
   47.0031   21.5970  322.6428 C   0  0  0  0  0
   46.5149   22.8121  321.8594 C   0  0  0  0  0
   44.0840   27.3464  316.4286 C   0  0  0  0  0
   45.4091   27.5367  316.0135 C   0  0  0  0  0
   45.6897   27.9913  314.7232 C   0  0  0  0  0
   44.6461   28.2510  313.8332 C   0  0  0  0  0
   43.3235   28.0349  314.2257 C   0  0  0  0  0
   43.0340   27.5807  315.5161 C   0  0  0  0  0
   43.0876   27.4893  318.7171 C   0  0  0  0  0
   41.1558   29.0591  318.8158 C   0  0  0  0  0
   40.1156   28.0591  319.1920 C   0  0  0  0  0
   40.9027   30.4023  318.6148 C   0  0  0  0  0
   42.1176   30.9710  318.2567 C   0  0  0  0  0
   43.0354   29.9384  318.2489 C   0  0  0  0  0
   44.4927   30.1213  317.9955 C   0  0  0  0  0
   43.9319   24.4755  321.5942 O   0  0  0  0  0
   45.2174   23.5190  319.8914 N   0  0  0  0  0
   44.3647   25.7799  318.2575 N   0  0  0  0  0
   43.8342   26.8890  317.7640 N   0  0  0  0  0
   42.4510   28.7721  318.5835 N   0  0  0  0  0
   44.9963   28.8232  312.2170 Cl  0  0  0  0  0
   41.3608   27.2283  315.9123 Cl  0  0  0  0  0
  1  2  1  0  0  0
  2  3  1  0  0  0
  3  4  1  0  0  0
  4  5  1  0  0  0
  5 26  1  0  0  0
  6 26  1  0  0  0
  6  7  1  0  0  0
  7  8  1  0  0  0
  8  9  1  0  0  0
  9 10  1  0  0  0
 10 11  1  0  0  0
 11  6  1  0  0  0
 13 14  1  0  0  0
 15 30  1  0  0  0
 15 16  1  0  0  0
 17 31  1  0  0  0
 17 12  1  0  0  0
 18 29  1  0  0  0
 20 19  1  0  0  0
 21 22  1  0  0  0
 23 29  1  0  0  0
 24 23  1  0  0  0
 28 27  1  0  0  0
 28 12  1  0  0  0
 28 18  1  0  0  0
 29 19  1  0  0  0
  4 27  2  0  0  0
  5 25  2  0  0  0
 12 13  2  0  0  0
 14 15  2  0  0  0
 16 17  2  0  0  0
 18  3  2  0  0  0
 19 21  2  0  0  0
 22 23  2  0  0  0
M  END
> <rmsd>
0.381274164

$$$$
CHEMBL1909856_5TGZ


 29 32  0  0  0  0  0  0  0  0999 V2000
   42.7361   27.5738  321.4061 C   0  0  0  0  0
   43.3734   27.1876  320.1145 C   0  0  0  0  0
   44.1172   26.0536  319.8293 C   0  0  0  0  0
   44.4953   24.9791  320.7597 C   0  0  0  0  0
   45.6502   22.7567  321.1323 C   0  0  0  0  0
   46.7685   21.9568  320.4500 C   0  0  0  0  0
   46.7963   20.4752  320.8503 C   0  0  0  0  0
   46.2674   20.2736  322.2673 C   0  0  0  0  0
   44.8065   20.7290  322.3872 C   0  0  0  0  0
   44.4397   21.8720  321.4308 C   0  0  0  0  0
   44.1848   27.5032  316.5909 C   0  0  0  0  0
   44.5609   26.5152  315.6704 C   0  0  0  0  0
   44.8069   26.8469  314.3359 C   0  0  0  0  0
   44.6866   28.1709  313.9053 C   0  0  0  0  0
   44.3233   29.1709  314.8226 C   0  0  0  0  0
   44.0813   28.8326  316.1562 C   0  0  0  0  0
   43.2845   27.8525  318.9105 C   0  0  0  0  0
   42.6751   30.2092  319.3041 C   0  0  0  0  0
   41.7145   31.1027  318.8589 C   0  0  0  0  0
   40.9267   30.4320  317.9337 C   0  0  0  0  0
   41.4502   29.1601  317.8555 C   0  0  0  0  0
   44.1501   25.0344  321.9711 O   0  0  0  0  0
   45.2627   23.8714  320.2812 N   0  0  0  0  0
   44.4576   26.0569  318.5230 N   0  0  0  0  0
   43.9538   27.1503  317.9663 N   0  0  0  0  0
   42.5095   29.0348  318.6737 N   0  0  0  0  0
   45.0019   28.5419  312.2184 Cl  0  0  0  0  0
   44.1620   30.8506  314.3384 Cl  0  0  0  0  0
   40.7744   27.8666  316.8784 Cl  0  0  0  0  0
  1  2  1  0  0  0
  2  3  1  0  0  0
  3  4  1  0  0  0
  4 23  1  0  0  0
  5 23  1  0  0  0
  5  6  1  0  0  0
  6  7  1  0  0  0
  7  8  1  0  0  0
  8  9  1  0  0  0
  9 10  1  0  0  0
 10  5  1  0  0  0
 12 13  1  0  0  0
 14 27  1  0  0  0
 14 15  1  0  0  0
 15 28  1  0  0  0
 16 11  1  0  0  0
 17 26  1  0  0  0
 19 20  1  0  0  0
 21 29  1  0  0  0
 21 26  1  0  0  0
 25 24  1  0  0  0
 25 11  1  0  0  0
 25 17  1  0  0  0
 26 18  1  0  0  0
  3 24  2  0  0  0
  4 22  2  0  0  0
 11 12  2  0  0  0
 13 14  2  0  0  0
 15 16  2  0  0  0
 17  2  2  0  0  0
 18 19  2  0  0  0
 20 21  2  0  0  0
M  END
> <rmsd>
0.267142296

$$$$
CHEMBL1909844_5TGZ


 29 32  0  0  0  0  0  0  0  0999 V2000
   42.7267   27.6193  321.4579 C   0  0  0  0  0
   43.4216   27.2326  320.1962 C   0  0  0  0  0
   44.1923   26.1044  319.9587 C   0  0  0  0  0
   44.5792   25.0692  320.9288 C   0  0  0  0  0
   45.7505   22.8686  321.3808 C   0  0  0  0  0
   46.9036   22.0837  320.7408 C   0  0  0  0  0
   46.9448   20.6463  321.2510 C   0  0  0  0  0
   45.6594   19.8888  320.8905 C   0  0  0  0  0
   44.4241   20.7929  320.7805 C   0  0  0  0  0
   44.5307   21.9929  321.7181 C   0  0  0  0  0
   44.2147   27.4329  316.6669 C   0  0  0  0  0
   44.4937   28.7576  316.2955 C   0  0  0  0  0
   44.7269   29.0896  314.9597 C   0  0  0  0  0
   44.6869   28.0984  313.9785 C   0  0  0  0  0
   44.4097   26.7767  314.3326 C   0  0  0  0  0
   44.1770   26.4347  315.6686 C   0  0  0  0  0
   43.3332   27.8529  318.9664 C   0  0  0  0  0
   41.5838   29.0523  317.7059 C   0  0  0  0  0
   41.0144   30.3147  317.6971 C   0  0  0  0  0
   41.6465   31.0564  318.6847 C   0  0  0  0  0
   42.5683   30.2053  319.2547 C   0  0  0  0  0
   44.2301   25.1646  322.1365 O   0  0  0  0  0
   45.3602   23.9536  320.4925 N   0  0  0  0  0
   44.5379   26.0622  318.6547 N   0  0  0  0  0
   44.0037   27.1158  318.0536 N   0  0  0  0  0
   42.5289   29.0004  318.6599 N   0  0  0  0  0
   44.9775   28.5127  312.3035 Cl  0  0  0  0  0
   43.7824   24.7619  316.0324 Cl  0  0  0  0  0
   43.7038   30.6749  320.5091 Cl  0  0  0  0  0
  1  2  1  0  0  0
  2  3  1  0  0  0
  3  4  1  0  0  0
  4 23  1  0  0  0
  5 23  1  0  0  0
  5  6  1  0  0  0
  6  7  1  0  0  0
  7  8  1  0  0  0
  8  9  1  0  0  0
  9 10  1  0  0  0
 10  5  1  0  0  0
 12 13  1  0  0  0
 14 27  1  0  0  0
 14 15  1  0  0  0
 16 28  1  0  0  0
 16 11  1  0  0  0
 17 26  1  0  0  0
 19 20  1  0  0  0
 21 29  1  0  0  0
 21 26  1  0  0  0
 25 24  1  0  0  0
 25 11  1  0  0  0
 25 17  1  0  0  0
 26 18  1  0  0  0
  3 24  2  0  0  0
  4 22  2  0  0  0
 11 12  2  0  0  0
 13 14  2  0  0  0
 15 16  2  0  0  0
 17  2  2  0  0  0
 18 19  2  0  0  0
 20 21  2  0  0  0
M  END
> <rmsd>
0.367549211

$$$$
CHEMBL574052_5TGZ


 31 34  0  0  0  0  0  0  0  0999 V2000
   43.9333   27.0925  317.9141 N   0  0  0  0  0
   44.4391   26.0018  318.4727 N   0  0  0  0  0
   42.5509   29.0202  318.6132 N   0  0  0  0  0
   45.2273   23.8141  320.2331 N   0  0  0  0  0
   44.1068   26.0086  319.7810 C   0  0  0  0  0
   43.3757   27.1519  320.0659 C   0  0  0  0  0
   43.2908   27.8135  318.8592 C   0  0  0  0  0
   41.5262   29.1800  317.7549 C   0  0  0  0  0
   41.0492   30.4763  317.7925 C   0  0  0  0  0
   41.8312   31.1456  318.7252 C   0  0  0  0  0
   42.7318   30.2144  319.2065 C   0  0  0  0  0
   43.7937   30.5136  320.2092 C   0  0  0  0  0
   40.9446   28.0958  316.9124 C   0  0  0  0  0
   42.7413   27.5429  321.3575 C   0  0  0  0  0
   44.4791   24.9341  320.7134 C   0  0  0  0  0
   45.6049   22.6969  321.0852 C   0  0  0  0  0
   44.3750   21.8354  321.4033 C   0  0  0  0  0
   44.5512   20.9438  322.6456 C   0  0  0  0  0
   45.9951   20.8359  323.1506 C   0  0  0  0  0
   46.9259   20.0739  322.2015 C   0  0  0  0  0
   46.7331   20.4030  320.7184 C   0  0  0  0  0
   46.7343   21.9042  320.4090 C   0  0  0  0  0
   44.1567   27.4617  316.5421 C   0  0  0  0  0
   44.1054   26.5059  315.5037 C   0  0  0  0  0
   44.3434   26.8988  314.1827 C   0  0  0  0  0
   44.6386   28.2300  313.8829 C   0  0  0  0  0
   44.6908   29.1798  314.9034 C   0  0  0  0  0
   44.4524   28.7969  316.2245 C   0  0  0  0  0
   44.1459   24.9998  321.9276 O   0  0  0  0  0
   44.9355   28.7084  312.2260 Cl  0  0  0  0  0
   43.6833   24.8261  315.7974 Cl  0  0  0  0  0
  1  2  1  0  0  0
  1 23  1  0  0  0
  3  8  1  0  0  0
  5  6  1  0  0  0
  5 15  1  0  0  0
  7  3  1  0  0  0
  7  1  1  0  0  0
  9 10  1  0  0  0
 11  3  1  0  0  0
 12 11  1  0  0  0
 13  8  1  0  0  0
 14  6  1  0  0  0
 15  4  1  0  0  0
 16  4  1  0  0  0
 16 17  1  0  0  0
 17 18  1  0  0  0
 18 19  1  0  0  0
 19 20  1  0  0  0
 20 21  1  0  0  0
 21 22  1  0  0  0
 22 16  1  0  0  0
 24 25  1  0  0  0
 24 31  1  0  0  0
 26 27  1  0  0  0
 26 30  1  0  0  0
 28 23  1  0  0  0
  5  2  2  0  0  0
  6  7  2  0  0  0
  8  9  2  0  0  0
 10 11  2  0  0  0
 15 29  2  0  0  0
 23 24  2  0  0  0
 25 26  2  0  0  0
 27 28  2  0  0  0
M  END
> <rmsd>
0.214953408

$$$$
CHEMBL493916_5TGZ


 33 37  0  0  0  0  0  0  0  0999 V2000
   42.7990   27.2442  321.3124 C   0  0  0  0  0
   43.4249   26.9701  319.9857 C   0  0  0  0  0
   44.1522   25.8473  319.6208 C   0  0  0  0  0
   44.5107   24.7000  320.4692 C   0  0  0  0  0
   44.4801   21.7725  321.1089 C   0  0  0  0  0
   44.8848   20.4955  321.8406 C   0  0  0  0  0
   45.8173   20.8428  322.9967 C   0  0  0  0  0
   47.0135   21.6406  322.4877 C   0  0  0  0  0
   46.5225   22.8710  321.7295 C   0  0  0  0  0
   44.2286   27.5074  316.5026 C   0  0  0  0  0
   43.6765   26.7588  315.4555 C   0  0  0  0  0
   43.8744   27.1476  314.1285 C   0  0  0  0  0
   44.6333   28.2839  313.8398 C   0  0  0  0  0
   45.2063   29.0240  314.8766 C   0  0  0  0  0
   45.0124   28.6410  316.2072 C   0  0  0  0  0
   43.3451   27.7366  318.8330 C   0  0  0  0  0
   42.6024   29.0083  318.6668 C   0  0  0  0  0
   42.1543   29.5325  317.4562 C   0  0  0  0  0
   41.4782   30.7526  317.5926 C   0  0  0  0  0
   41.4004   31.1728  318.9109 C   0  0  0  0  0
   40.7696   32.3815  319.3576 C   0  0  0  0  0
   40.2404   33.3974  319.7347 C   0  0  0  0  0
   39.5960   34.6301  320.1903 C   0  0  0  0  0
   40.6452   35.5522  320.7771 C   0  0  0  0  0
   39.7509   34.7460  321.6930 C   0  0  0  0  0
   44.1594   24.6704  321.6797 O   0  0  0  0  0
   45.2660   23.6152  319.9042 N   0  0  0  0  0
   45.6719   22.4629  320.6077 N   0  0  0  0  0
   44.4968   25.9403  318.3219 N   0  0  0  0  0
   44.0159   27.0818  317.8539 N   0  0  0  0  0
   44.8795   28.7721  312.1774 Cl  0  0  0  0  0
   45.7975   29.5738  317.4716 Cl  0  0  0  0  0
   42.1559   30.0567  319.9074 S   0  0  0  0  0
  1  2  1  0  0  0
  2  3  1  0  0  0
  3  4  1  0  0  0
  4 27  1  0  0  0
  5 28  1  0  0  0
  5  6  1  0  0  0
  6  7  1  0  0  0
  7  8  1  0  0  0
  8  9  1  0  0  0
  9 28  1  0  0  0
 11 12  1  0  0  0
 13 31  1  0  0  0
 13 14  1  0  0  0
 15 32  1  0  0  0
 15 10  1  0  0  0
 16 17  1  0  0  0
 17 33  1  0  0  0
 18 19  1  0  0  0
 20 21  1  0  0  0
 20 33  1  0  0  0
 23 22  1  0  0  0
 23 24  1  0  0  0
 24 25  1  0  0  0
 25 23  1  0  0  0
 27 28  1  0  0  0
 30 29  1  0  0  0
 30 10  1  0  0  0
 30 16  1  0  0  0
  3 29  2  0  0  0
  4 26  2  0  0  0
 10 11  2  0  0  0
 12 13  2  0  0  0
 14 15  2  0  0  0
 16  2  2  0  0  0
 17 18  2  0  0  0
 19 20  2  0  0  0
 21 22  3  0  0  0
M  END
> <rmsd>
0.369217634

$$$$
CHEMBL462069_5TGZ


 32 34  0  0  0  0  0  0  0  0999 V2000
   36.8715   31.8531  313.4470 C   0  0  0  0  0
   38.3779   31.8342  313.6242 C   0  0  0  0  0
   38.8541   33.1289  314.2667 C   0  0  0  0  0
   38.5105   33.1758  315.7489 C   0  0  0  0  0
   39.3964   32.2897  316.5097 C   0  0  0  0  0
   40.1250   31.5590  317.1329 C   0  0  0  0  0
   40.9932   30.6866  317.8701 C   0  0  0  0  0
   41.3658   30.8613  319.1937 C   0  0  0  0  0
   42.2208   29.8483  319.6506 C   0  0  0  0  0
   42.5185   28.8974  318.6776 C   0  0  0  0  0
   43.3523   27.6934  318.8892 C   0  0  0  0  0
   43.5179   27.0187  320.0876 C   0  0  0  0  0
   42.9239   27.3613  321.4131 C   0  0  0  0  0
   44.2984   25.9172  319.7743 C   0  0  0  0  0
   44.7558   24.8575  320.6865 C   0  0  0  0  0
   46.0164   22.6849  321.0082 C   0  0  0  0  0
   44.8649   21.7459  321.3125 C   0  0  0  0  0
   45.3558   20.6125  322.1877 C   0  0  0  0  0
   44.2051   19.6779  322.4944 C   0  0  0  0  0
   44.2240   27.3939  316.5626 C   0  0  0  0  0
   44.7865   28.6456  316.2714 C   0  0  0  0  0
   45.0162   29.0275  314.9478 C   0  0  0  0  0
   44.6910   28.1584  313.9047 C   0  0  0  0  0
   44.1390   26.9061  314.1845 C   0  0  0  0  0
   43.9088   26.5159  315.5073 C   0  0  0  0  0
   44.4499   24.8927  321.9091 O   0  0  0  0  0
   45.5550   23.7865  320.1768 N   0  0  0  0  0
   44.5950   25.9400  318.4604 N   0  0  0  0  0
   44.0204   27.0091  317.9291 N   0  0  0  0  0
   44.9753   28.6376  312.2459 Cl  0  0  0  0  0
   43.1847   24.9440  315.8046 Cl  0  0  0  0  0
   41.7011   29.2957  317.2592 S   0  0  0  0  0
  1  2  1  0  0  0
  2  3  1  0  0  0
  3  4  1  0  0  0
  4  5  1  0  0  0
  7  6  1  0  0  0
  7 32  1  0  0  0
  8  9  1  0  0  0
 10 11  1  0  0  0
 10 32  1  0  0  0
 12 14  1  0  0  0
 13 12  1  0  0  0
 14 15  1  0  0  0
 15 27  1  0  0  0
 16 27  1  0  0  0
 16 17  1  0  0  0
 17 18  1  0  0  0
 18 19  1  0  0  0
 21 22  1  0  0  0
 23 30  1  0  0  0
 23 24  1  0  0  0
 25 31  1  0  0  0
 25 20  1  0  0  0
 29 28  1  0  0  0
 29 20  1  0  0  0
 29 11  1  0  0  0
  7  8  2  0  0  0
  9 10  2  0  0  0
 11 12  2  0  0  0
 14 28  2  0  0  0
 15 26  2  0  0  0
 20 21  2  0  0  0
 22 23  2  0  0  0
 24 25  2  0  0  0
  5  6  3  0  0  0
M  END
> <rmsd>
0.399283648

$$$$
CHEMBL189676_5TGZ


 31 34  0  0  0  0  0  0  0  0999 V2000
   43.0308   28.3655  321.9393 C   0  0  0  0  0
   42.3275   27.2063  321.2593 C   0  0  0  0  0
   42.9982   26.8793  319.9623 C   0  0  0  0  0
   43.7573   25.7542  319.6766 C   0  0  0  0  0
   44.0521   24.6253  320.5727 C   0  0  0  0  0
   46.3352   22.8796  321.7641 C   0  0  0  0  0
   47.0207   21.6973  322.4717 C   0  0  0  0  0
   46.2226   20.4040  322.3230 C   0  0  0  0  0
   45.9247   20.1095  320.8499 C   0  0  0  0  0
   45.6394   21.3854  320.0481 C   0  0  0  0  0
   44.0758   27.3544  316.5408 C   0  0  0  0  0
   45.4061   27.5843  316.1674 C   0  0  0  0  0
   45.7179   27.9594  314.8585 C   0  0  0  0  0
   44.7011   28.1001  313.9116 C   0  0  0  0  0
   43.3739   27.8507  314.2687 C   0  0  0  0  0
   43.0539   27.4748  315.5768 C   0  0  0  0  0
   43.0380   27.6412  318.8017 C   0  0  0  0  0
   42.4169   28.9723  318.5991 C   0  0  0  0  0
   41.2129   29.2985  319.2404 C   0  0  0  0  0
   40.6251   30.5521  319.0510 C   0  0  0  0  0
   41.2377   31.4918  318.2187 C   0  0  0  0  0
   42.4386   31.1789  317.5780 C   0  0  0  0  0
   43.0253   29.9252  317.7689 C   0  0  0  0  0
   43.5862   24.5998  321.7437 O   0  0  0  0  0
   44.8695   23.5491  320.1059 N   0  0  0  0  0
   45.1994   22.4635  320.9302 N   0  0  0  0  0
   44.2272   25.8383  318.4168 N   0  0  0  0  0
   43.7865   26.9709  317.8913 N   0  0  0  0  0
   45.0914   28.5726  312.2725 Cl  0  0  0  0  0
   41.3776   27.1136  315.9566 Cl  0  0  0  0  0
   40.4363   33.2004  317.9587 Br  0  0  0  0  0
  1  2  1  0  0  0
  2  3  1  0  0  0
  3  4  1  0  0  0
  4  5  1  0  0  0
  5 25  1  0  0  0
  6 26  1  0  0  0
  6  7  1  0  0  0
  7  8  1  0  0  0
  8  9  1  0  0  0
  9 10  1  0  0  0
 10 26  1  0  0  0
 12 13  1  0  0  0
 14 29  1  0  0  0
 14 15  1  0  0  0
 16 30  1  0  0  0
 16 11  1  0  0  0
 17 18  1  0  0  0
 19 20  1  0  0  0
 21 31  1  0  0  0
 21 22  1  0  0  0
 23 18  1  0  0  0
 25 26  1  0  0  0
 28 27  1  0  0  0
 28 11  1  0  0  0
 28 17  1  0  0  0
  4 27  2  0  0  0
  5 24  2  0  0  0
 11 12  2  0  0  0
 13 14  2  0  0  0
 15 16  2  0  0  0
 17  3  2  0  0  0
 18 19  2  0  0  0
 20 21  2  0  0  0
 22 23  2  0  0  0
M  END
> <rmsd>
0.377210796

$$$$
CHEMBL4089821_5U09


 40 43  0  0  0  0  0  0  0  0999 V2000
   40.2209   32.8461  315.5237 O   0  0  0  0  0
   38.3216   31.9312  316.7798 O   0  0  0  0  0
   40.4804   32.5997  318.1287 O   0  0  0  0  0
   44.0808   24.8973  321.8980 O   0  0  0  0  0
   39.4447   32.9299  316.8076 S   0  0  0  0  0
   41.1630   31.3901  318.2868 C   0  0  0  0  0
   41.0394   30.3454  317.3589 C   0  0  0  0  0
   41.7376   29.1503  317.5460 C   0  0  0  0  0
   42.5727   28.9835  318.6604 C   0  0  0  0  0
   43.3951   27.0499  320.0048 C   0  0  0  0  0
   44.0788   25.8778  319.7401 C   0  0  0  0  0
   43.9141   26.9881  317.9220 C   0  0  0  0  0
   44.1414   27.3865  316.5158 C   0  0  0  0  0
   43.9790   26.4769  315.4480 C   0  0  0  0  0
   44.2339   26.8909  314.1367 C   0  0  0  0  0
   44.6587   28.1952  313.8766 C   0  0  0  0  0
   44.8295   29.0960  314.9283 C   0  0  0  0  0
   44.5751   28.6917  316.2402 C   0  0  0  0  0
   44.4124   24.8005  320.6861 C   0  0  0  0  0
   45.5235   22.5047  320.9757 C   0  0  0  0  0
   45.2514   22.4030  322.3477 C   0  0  0  0  0
   45.6671   21.2713  323.0506 C   0  0  0  0  0
   46.3480   20.2533  322.3833 C   0  0  0  0  0
   46.6036   20.3839  321.0176 C   0  0  0  0  0
   46.7966   19.0425  323.1187 C   0  0  0  0  0
   42.7926   27.4501  321.3128 C   0  0  0  0  0
   42.6885   30.0271  319.5895 C   0  0  0  0  0
   41.9891   31.2222  319.4020 C   0  0  0  0  0
   38.7769   34.5691  316.9784 C   0  0  0  0  0
   38.0431   34.6920  318.3035 C   0  0  0  0  0
   37.4625   36.0862  318.4840 C   0  0  0  0  0
   43.2896   27.7501  318.8563 N   0  0  0  0  0
   44.4106   25.8402  318.4344 N   0  0  0  0  0
   45.1178   23.6463  320.2081 N   0  0  0  0  0
   46.1900   21.4953  320.3508 N   0  0  0  0  0
   44.9748   28.7007  312.2314 Cl  0  0  0  0  0
   43.4083   24.8324  315.6945 Cl  0  0  0  0  0
   38.4753   37.0282  318.4695 F   0  0  0  0  0
   36.5612   36.3602  317.4712 F   0  0  0  0  0
   36.8077   36.1470  319.6989 F   0  0  0  0  0
  5  3  1  0  0  0
  5 29  1  0  0  0
  6  3  1  0  0  0
  7  8  1  0  0  0
  9 32  1  0  0  0
  9 27  1  0  0  0
 11 33  1  0  0  0
 11 19  1  0  0  0
 12 13  1  0  0  0
 12 32  1  0  0  0
 14 15  1  0  0  0
 14 37  1  0  0  0
 16 17  1  0  0  0
 16 36  1  0  0  0
 18 13  1  0  0  0
 19 34  1  0  0  0
 20 35  1  0  0  0
 21 22  1  0  0  0
 23 24  1  0  0  0
 25 23  1  0  0  0
 26 10  1  0  0  0
 28  6  1  0  0  0
 29 30  1  0  0  0
 30 31  1  0  0  0
 31 38  1  0  0  0
 31 39  1  0  0  0
 31 40  1  0  0  0
 32 10  1  0  0  0
 34 20  1  0  0  0
  5  1  2  0  0  0
  5  2  2  0  0  0
  6  7  2  0  0  0
  8  9  2  0  0  0
 10 11  2  0  0  0
 12 33  2  0  0  0
 13 14  2  0  0  0
 15 16  2  0  0  0
 17 18  2  0  0  0
 19  4  2  0  0  0
 20 21  2  0  0  0
 22 23  2  0  0  0
 24 35  2  0  0  0
 27 28  2  0  0  0
M  END
> <rmsd>
0.209641367

$$$$
CHEMBL2030930_5TGZ


 37 40  0  0  0  0  0  0  0  0999 V2000
   43.2117   27.9761  318.9721 C   0  0  0  0  0
   43.9960   26.1863  319.9849 C   0  0  0  0  0
   43.2487   27.3336  320.2008 C   0  0  0  0  0
   42.5607   27.7384  321.4624 C   0  0  0  0  0
   44.3221   25.1354  320.9613 C   0  0  0  0  0
   45.4359   22.9131  321.4456 C   0  0  0  0  0
   46.6066   22.1069  320.8591 C   0  0  0  0  0
   46.2519   20.6511  320.5571 C   0  0  0  0  0
   45.6498   19.9881  321.7943 C   0  0  0  0  0
   44.1911   22.0640  321.7262 C   0  0  0  0  0
   43.8518   20.3469  323.5123 C   0  0  0  0  0
   42.0262   20.7810  325.1784 C   0  0  0  0  0
   41.0098   21.8767  325.4205 C   0  0  0  0  0
   42.9027   20.6578  326.4129 C   0  0  0  0  0
   41.2812   19.4784  324.9437 C   0  0  0  0  0
   44.2012   27.5162  316.7167 C   0  0  0  0  0
   43.7394   26.6331  315.7323 C   0  0  0  0  0
   43.9931   26.8844  314.3820 C   0  0  0  0  0
   44.7180   28.0175  314.0070 C   0  0  0  0  0
   45.2024   28.8917  314.9827 C   0  0  0  0  0
   44.9525   28.6470  316.3364 C   0  0  0  0  0
   42.4654   29.2179  318.6504 C   0  0  0  0  0
   42.2521   30.1931  319.6361 C   0  0  0  0  0
   41.5486   31.3633  319.3374 C   0  0  0  0  0
   41.0495   31.5679  318.0490 C   0  0  0  0  0
   41.2506   30.6014  317.0610 C   0  0  0  0  0
   41.9536   29.4319  317.3618 C   0  0  0  0  0
   43.9278   27.2301  318.0944 N   0  0  0  0  0
   44.3944   26.1480  318.6986 N   0  0  0  0  0
   45.1002   24.0087  320.5487 N   0  0  0  0  0
   44.5709   20.8034  322.3606 N   0  0  0  0  0
   43.9236   25.2269  322.1541 O   0  0  0  0  0
   44.1592   19.2483  324.0524 O   0  0  0  0  0
   42.8097   21.1291  324.0347 O   0  0  0  0  0
   45.6363   29.7449  317.5250 Cl  0  0  0  0  0
   45.0338   28.3339  312.3152 Cl  0  0  0  0  0
   40.1698   33.0334  317.6735 Cl  0  0  0  0  0
  1 28  1  0  0  0
  1 22  1  0  0  0
  2  3  1  0  0  0
  2  5  1  0  0  0
  4  3  1  0  0  0
  5 30  1  0  0  0
  6 30  1  0  0  0
  6  7  1  0  0  0
  7  8  1  0  0  0
  8  9  1  0  0  0
  9 31  1  0  0  0
 10 31  1  0  0  0
 10  6  1  0  0  0
 11 34  1  0  0  0
 12 34  1  0  0  0
 12 13  1  0  0  0
 12 14  1  0  0  0
 12 15  1  0  0  0
 17 18  1  0  0  0
 19 20  1  0  0  0
 19 36  1  0  0  0
 21 35  1  0  0  0
 21 16  1  0  0  0
 23 24  1  0  0  0
 25 26  1  0  0  0
 25 37  1  0  0  0
 27 22  1  0  0  0
 28 29  1  0  0  0
 28 16  1  0  0  0
 31 11  1  0  0  0
  2 29  2  0  0  0
  3  1  2  0  0  0
  5 32  2  0  0  0
 11 33  2  0  0  0
 16 17  2  0  0  0
 18 19  2  0  0  0
 20 21  2  0  0  0
 22 23  2  0  0  0
 24 25  2  0  0  0
 26 27  2  0  0  0
M  END
> <rmsd>
0.472427249

$$$$
CHEMBL2296774_5TGZ


 34 38  0  0  0  0  0  0  0  0999 V2000
   45.9680   23.1691  318.5776 O   0  0  0  0  0
   42.5990   31.1439  321.6378 O   0  0  0  0  0
   40.6724   31.9863  320.8174 O   0  0  0  0  0
   45.3026   23.9559  319.3035 C   0  0  0  0  0
   44.6663   21.4131  320.9838 C   0  0  0  0  0
   44.9143   20.1516  321.8293 C   0  0  0  0  0
   46.2281   20.2332  322.6034 C   0  0  0  0  0
   46.2958   21.5175  323.4344 C   0  0  0  0  0
   45.6611   22.7123  322.7115 C   0  0  0  0  0
   44.7207   25.1723  318.7088 C   0  0  0  0  0
   44.3362   27.3163  315.9294 C   0  0  0  0  0
   44.8376   28.6261  315.8826 C   0  0  0  0  0
   44.9559   29.2959  314.6631 C   0  0  0  0  0
   44.5800   28.6597  313.4786 C   0  0  0  0  0
   44.0870   27.3533  313.5130 C   0  0  0  0  0
   43.9679   26.6753  314.7300 C   0  0  0  0  0
   43.6772   27.0826  318.3389 C   0  0  0  0  0
   43.9719   26.1545  319.3448 C   0  0  0  0  0
   43.6788   26.1845  320.8231 C   0  0  0  0  0
   42.7773   27.3116  321.2861 C   0  0  0  0  0
   43.3587   28.6436  320.8654 C   0  0  0  0  0
   42.6823   29.0778  319.6067 C   0  0  0  0  0
   42.8015   28.2925  318.4309 C   0  0  0  0  0
   42.0432   28.6448  317.3058 C   0  0  0  0  0
   41.2129   29.7600  317.3129 C   0  0  0  0  0
   41.1261   30.5501  318.4533 C   0  0  0  0  0
   41.8569   30.2354  319.6053 C   0  0  0  0  0
   45.1203   23.6600  320.6907 N   0  0  0  0  0
   45.6272   22.4873  321.2682 N   0  0  0  0  0
   44.8761   25.4912  317.4121 N   0  0  0  0  0
   44.2487   26.6343  317.1900 N   0  0  0  0  0
   41.7191   31.0950  320.7539 N   0  0  0  0  0
   44.7255   29.4994  311.9503 Cl  0  0  0  0  0
   43.3098   25.0472  314.7203 Cl  0  0  0  0  0
  4 28  1  0  0  0
  4 10  1  0  0  0
  5 29  1  0  0  0
  5  6  1  0  0  0
  6  7  1  0  0  0
  7  8  1  0  0  0
  8  9  1  0  0  0
  9 29  1  0  0  0
 12 13  1  0  0  0
 14 33  1  0  0  0
 14 15  1  0  0  0
 16 34  1  0  0  0
 16 11  1  0  0  0
 18 10  1  0  0  0
 19 18  1  0  0  0
 19 20  1  0  0  0
 20 21  1  0  0  0
 21 22  1  0  0  0
 23 24  1  0  0  0
 23 17  1  0  0  0
 25 26  1  0  0  0
 27 32  1  0  0  0
 27 22  1  0  0  0
 28 29  1  0  0  0
 31 30  1  0  0  0
 31 11  1  0  0  0
 31 17  1  0  0  0
 32  3  1  0  0  0
  4  1  2  0  0  0
 10 30  2  0  0  0
 11 12  2  0  0  0
 13 14  2  0  0  0
 15 16  2  0  0  0
 17 18  2  0  0  0
 22 23  2  0  0  0
 24 25  2  0  0  0
 26 27  2  0  0  0
 32  2  2  0  0  0
M  CHG  2  32   1   3  -1
M  END
> <rmsd>
0.586529732

$$$$
CHEMBL4094098_5TGZ


 40 43  0  0  0  0  0  0  0  0999 V2000
   42.7922   27.4508  321.3109 C   0  0  0  0  0
   43.3950   27.0511  320.0028 C   0  0  0  0  0
   44.0788   25.8790  319.7381 C   0  0  0  0  0
   43.9142   26.9893  317.9201 C   0  0  0  0  0
   42.5727   28.9847  318.6585 C   0  0  0  0  0
   42.6872   30.0276  319.5885 C   0  0  0  0  0
   41.9876   31.2228  319.4011 C   0  0  0  0  0
   41.1628   31.3913  318.2851 C   0  0  0  0  0
   41.0405   30.3472  317.3562 C   0  0  0  0  0
   41.7388   29.1522  317.5433 C   0  0  0  0  0
   38.7588   34.5692  316.9714 C   0  0  0  0  0
   38.5516   34.9426  318.4347 C   0  0  0  0  0
   37.2103   34.4657  318.9803 C   0  0  0  0  0
   44.1414   27.3877  316.5140 C   0  0  0  0  0
   43.9785   26.4781  315.4461 C   0  0  0  0  0
   44.2333   26.8921  314.1348 C   0  0  0  0  0
   44.6585   28.1962  313.8746 C   0  0  0  0  0
   44.8298   29.0970  314.9263 C   0  0  0  0  0
   44.5756   28.6928  316.2383 C   0  0  0  0  0
   44.4124   24.8016  320.6841 C   0  0  0  0  0
   45.5215   22.5077  320.9769 C   0  0  0  0  0
   46.2075   21.4682  320.3429 C   0  0  0  0  0
   46.3463   20.2540  322.3790 C   0  0  0  0  0
   45.6637   21.2673  323.0542 C   0  0  0  0  0
   45.2510   22.3974  322.3471 C   0  0  0  0  0
   44.4107   25.8415  318.4326 N   0  0  0  0  0
   43.2895   27.7512  318.8544 N   0  0  0  0  0
   45.1183   23.6478  320.2064 N   0  0  0  0  0
   46.6020   20.3740  321.0486 N   0  0  0  0  0
   40.4799   32.6006  318.1273 O   0  0  0  0  0
   40.2255   32.8580  315.5244 O   0  0  0  0  0
   38.3312   31.9224  316.7663 O   0  0  0  0  0
   44.0810   24.8983  321.8961 O   0  0  0  0  0
   39.4441   32.9315  316.8058 S   0  0  0  0  0
   37.1880   33.0867  319.0675 F   0  0  0  0  0
   36.1805   34.8949  318.1623 F   0  0  0  0  0
   37.0297   34.9945  320.2435 F   0  0  0  0  0
   46.7544   19.1502  323.0495 F   0  0  0  0  0
   44.9743   28.7017  312.2292 Cl  0  0  0  0  0
   43.4077   24.8336  315.6928 Cl  0  0  0  0  0
  1  2  1  0  0  0
  3 26  1  0  0  0
  3 20  1  0  0  0
  4 27  1  0  0  0
  4 14  1  0  0  0
  6  7  1  0  0  0
  8  9  1  0  0  0
  8 30  1  0  0  0
 10  5  1  0  0  0
 11 12  1  0  0  0
 12 13  1  0  0  0
 13 35  1  0  0  0
 13 36  1  0  0  0
 13 37  1  0  0  0
 15 16  1  0  0  0
 15 40  1  0  0  0
 17 18  1  0  0  0
 17 39  1  0  0  0
 19 14  1  0  0  0
 20 28  1  0  0  0
 22 29  1  0  0  0
 23 24  1  0  0  0
 23 38  1  0  0  0
 25 21  1  0  0  0
 27  5  1  0  0  0
 27  2  1  0  0  0
 28 21  1  0  0  0
 34 30  1  0  0  0
 34 11  1  0  0  0
  2  3  2  0  0  0
  4 26  2  0  0  0
  5  6  2  0  0  0
  7  8  2  0  0  0
  9 10  2  0  0  0
 14 15  2  0  0  0
 16 17  2  0  0  0
 18 19  2  0  0  0
 20 33  2  0  0  0
 21 22  2  0  0  0
 23 29  2  0  0  0
 24 25  2  0  0  0
 34 31  2  0  0  0
 34 32  2  0  0  0
M  END
> <rmsd>
0.209327027

$$$$
CHEMBL1088349_5TGZ


 32 35  0  0  0  0  0  0  0  0999 V2000
   43.2687   27.7883  318.8347 N   0  0  0  0  0
   44.5991   25.9960  318.5297 N   0  0  0  0  0
   45.3202   23.8560  320.3629 N   0  0  0  0  0
   45.6439   22.8069  321.2354 N   0  0  0  0  0
   43.2821   27.0654  319.9741 C   0  0  0  0  0
   44.0992   25.9652  319.7807 C   0  0  0  0  0
   44.0826   27.1173  317.9810 C   0  0  0  0  0
   44.3180   27.4860  316.5676 C   0  0  0  0  0
   45.5985   27.4006  315.9781 C   0  0  0  0  0
   45.7672   27.7318  314.6296 C   0  0  0  0  0
   44.6758   28.1365  313.8587 C   0  0  0  0  0
   43.4070   28.2156  314.4333 C   0  0  0  0  0
   43.2299   27.8890  315.7791 C   0  0  0  0  0
   44.4236   24.9020  320.7455 C   0  0  0  0  0
   46.8678   22.1963  320.7187 C   0  0  0  0  0
   47.2913   21.0362  321.6169 C   0  0  0  0  0
   46.1794   19.9924  321.6584 C   0  0  0  0  0
   44.8606   20.6403  322.0691 C   0  0  0  0  0
   44.5649   21.8207  321.1469 C   0  0  0  0  0
   43.8742   28.4224  322.1442 C   0  0  0  0  0
   43.8151   29.8712  321.7050 C   0  0  0  0  0
   42.6119   29.0496  318.6192 C   0  0  0  0  0
   43.3112   30.1235  318.0476 C   0  0  0  0  0
   42.6763   31.3515  317.8441 C   0  0  0  0  0
   41.3386   31.5155  318.2127 C   0  0  0  0  0
   40.6357   30.4522  318.7855 C   0  0  0  0  0
   41.2703   29.2238  318.9885 C   0  0  0  0  0
   44.9002   28.5474  312.1725 Cl  0  0  0  0  0
   47.0265   26.9408  316.8950 Cl  0  0  0  0  0
   40.5436   33.0534  317.9581 Cl  0  0  0  0  0
   43.9210   24.9067  321.9010 O   0  0  0  0  0
   42.4360   27.5198  321.4972 S   0  0  0  0  0
  1  5  1  0  0  0
  1 22  1  0  0  0
  3  4  1  0  0  0
  5 32  1  0  0  0
  6  2  1  0  0  0
  6 14  1  0  0  0
  7  8  1  0  0  0
  7  1  1  0  0  0
  9 10  1  0  0  0
  9 29  1  0  0  0
 11 12  1  0  0  0
 11 28  1  0  0  0
 13  8  1  0  0  0
 14  3  1  0  0  0
 15  4  1  0  0  0
 15 16  1  0  0  0
 16 17  1  0  0  0
 17 18  1  0  0  0
 18 19  1  0  0  0
 19  4  1  0  0  0
 20 32  1  0  0  0
 20 21  1  0  0  0
 23 24  1  0  0  0
 25 26  1  0  0  0
 25 30  1  0  0  0
 27 22  1  0  0  0
  5  6  2  0  0  0
  7  2  2  0  0  0
  8  9  2  0  0  0
 10 11  2  0  0  0
 12 13  2  0  0  0
 14 31  2  0  0  0
 22 23  2  0  0  0
 24 25  2  0  0  0
 26 27  2  0  0  0
M  END
> <rmsd>
0.341350526

$$$$
CHEMBL1088222_5TGZ


 33 36  0  0  0  0  0  0  0  0999 V2000
   42.9574   28.0805  321.4956 C   0  0  0  0  0
   43.9703   26.2475  319.4310 C   0  0  0  0  0
   44.9134   25.3248  318.9980 C   0  0  0  0  0
   45.4049   24.1258  319.6958 C   0  0  0  0  0
   46.2314   22.6153  322.1432 C   0  0  0  0  0
   46.6415   21.3974  322.9669 C   0  0  0  0  0
   46.8141   20.1930  322.0470 C   0  0  0  0  0
   45.5424   19.9617  321.2371 C   0  0  0  0  0
   45.1767   21.2379  320.4836 C   0  0  0  0  0
   44.5974   26.7431  317.4305 C   0  0  0  0  0
   44.6710   27.3731  316.0927 C   0  0  0  0  0
   43.4821   27.7406  315.4448 C   0  0  0  0  0
   43.5100   28.3101  314.1705 C   0  0  0  0  0
   44.7302   28.5137  313.5257 C   0  0  0  0  0
   45.9216   28.1492  314.1555 C   0  0  0  0  0
   45.9028   27.5762  315.4312 C   0  0  0  0  0
   42.8562   28.2411  318.4150 C   0  0  0  0  0
   43.3291   29.5332  318.1449 C   0  0  0  0  0
   42.4443   30.6146  318.1190 C   0  0  0  0  0
   41.0829   30.4095  318.3602 C   0  0  0  0  0
   40.6050   29.1232  318.6254 C   0  0  0  0  0
   41.4887   28.0408  318.6512 C   0  0  0  0  0
   43.2991   26.3882  321.0666 S   0  0  0  0  0
   44.2929   25.8820  322.0734 O   0  0  0  0  0
   42.0347   25.5827  321.1605 O   0  0  0  0  0
   46.5087   23.6241  319.3510 O   0  0  0  0  0
   44.6072   23.4935  320.7105 N   0  0  0  0  0
   44.9811   22.3402  321.4296 N   0  0  0  0  0
   45.3101   25.6426  317.7497 N   0  0  0  0  0
   43.7614   27.1272  318.4263 N   0  0  0  0  0
   44.7678   29.2291  311.9291 Cl  0  0  0  0  0
   47.4462   27.1849  316.1765 Cl  0  0  0  0  0
   39.9756   31.7642  318.3277 Cl  0  0  0  0  0
  1 23  1  0  0  0
  3  4  1  0  0  0
  3 29  1  0  0  0
  4 27  1  0  0  0
  5 28  1  0  0  0
  5  6  1  0  0  0
  6  7  1  0  0  0
  7  8  1  0  0  0
  8  9  1  0  0  0
  9 28  1  0  0  0
 10 11  1  0  0  0
 10 30  1  0  0  0
 12 13  1  0  0  0
 14 31  1  0  0  0
 14 15  1  0  0  0
 16 32  1  0  0  0
 16 11  1  0  0  0
 18 19  1  0  0  0
 20 33  1  0  0  0
 20 21  1  0  0  0
 22 17  1  0  0  0
 23  2  1  0  0  0
 27 28  1  0  0  0
 30 17  1  0  0  0
 30  2  1  0  0  0
  2  3  2  0  0  0
  4 26  2  0  0  0
 10 29  2  0  0  0
 11 12  2  0  0  0
 13 14  2  0  0  0
 15 16  2  0  0  0
 17 18  2  0  0  0
 19 20  2  0  0  0
 21 22  2  0  0  0
 23 24  2  0  0  0
 23 25  2  0  0  0
M  END
> <rmsd>
0.54746151

$$$$
CHEMBL1088506_5TGZ


 30 33  0  0  0  0  0  0  0  0999 V2000
   43.5599   28.1326  322.2231 C   0  0  0  0  0
   43.0283   26.9324  319.9663 C   0  0  0  0  0
   43.7135   25.7504  319.7403 C   0  0  0  0  0
   43.9030   24.6254  320.6711 C   0  0  0  0  0
   45.2625   21.2633  320.2529 C   0  0  0  0  0
   46.7185   20.9493  320.5166 C   0  0  0  0  0
   46.9983   21.5747  321.8507 C   0  0  0  0  0
   46.0248   22.7245  321.9214 C   0  0  0  0  0
   43.8057   26.9324  317.9665 C   0  0  0  0  0
   44.1533   27.3388  316.5930 C   0  0  0  0  0
   43.7656   26.5095  315.5331 C   0  0  0  0  0
   44.0670   26.8573  314.2145 C   0  0  0  0  0
   44.7659   28.0356  313.9463 C   0  0  0  0  0
   45.1790   28.8574  314.9972 C   0  0  0  0  0
   44.8812   28.5170  316.3203 C   0  0  0  0  0
   42.4055   28.9229  318.5850 C   0  0  0  0  0
   42.3935   29.9384  319.5528 C   0  0  0  0  0
   41.7505   31.1527  319.2985 C   0  0  0  0  0
   41.1146   31.3626  318.0724 C   0  0  0  0  0
   41.1208   30.3585  317.1013 C   0  0  0  0  0
   41.7635   29.1444  317.3567 C   0  0  0  0  0
   42.1078   27.3652  321.4504 S   0  0  0  0  0
   43.4291   24.6688  321.8378 O   0  0  0  0  0
   44.6334   23.4738  320.2415 N   0  0  0  0  0
   44.8674   22.3870  321.0973 N   0  0  0  0  0
   44.1997   25.7492  318.4835 N   0  0  0  0  0
   43.0811   27.6760  318.8402 N   0  0  0  0  0
   45.1420   28.4733  312.2943 Cl  0  0  0  0  0
   45.4987   29.5523  317.5999 Cl  0  0  0  0  0
   40.3106   32.8838  317.7530 Cl  0  0  0  0  0
  1 22  1  0  0  0
  2 22  1  0  0  0
  3  4  1  0  0  0
  3 26  1  0  0  0
  4 24  1  0  0  0
  5 25  1  0  0  0
  5  6  1  0  0  0
  6  7  1  0  0  0
  7  8  1  0  0  0
  8 25  1  0  0  0
  9 10  1  0  0  0
  9 27  1  0  0  0
 11 12  1  0  0  0
 13 28  1  0  0  0
 13 14  1  0  0  0
 15 29  1  0  0  0
 15 10  1  0  0  0
 17 18  1  0  0  0
 19 30  1  0  0  0
 19 20  1  0  0  0
 21 16  1  0  0  0
 24 25  1  0  0  0
 27 16  1  0  0  0
 27  2  1  0  0  0
  2  3  2  0  0  0
  4 23  2  0  0  0
  9 26  2  0  0  0
 10 11  2  0  0  0
 12 13  2  0  0  0
 14 15  2  0  0  0
 16 17  2  0  0  0
 18 19  2  0  0  0
 20 21  2  0  0  0
M  END
> <rmsd>
0.499275625

$$$$
CHEMBL4078689_5TGZ


 34 37  0  0  0  0  0  0  0  0999 V2000
   42.9057   27.2577  321.2306 C   0  0  0  0  0
   43.4854   26.9166  319.8959 C   0  0  0  0  0
   44.1728   25.7623  319.5703 C   0  0  0  0  0
   43.9640   26.9440  317.8027 C   0  0  0  0  0
   42.6220   28.8964  318.6479 C   0  0  0  0  0
   41.7630   29.1011  317.5582 C   0  0  0  0  0
   41.0506   30.2963  317.4344 C   0  0  0  0  0
   41.1846   31.3033  318.4032 C   0  0  0  0  0
   42.0351   31.0974  319.4936 C   0  0  0  0  0
   42.7481   29.9019  319.6170 C   0  0  0  0  0
   39.6043   32.8026  317.2331 C   0  0  0  0  0
   39.0159   34.1861  317.4251 C   0  0  0  0  0
   38.0737   34.5143  316.2829 C   0  0  0  0  0
   44.1611   27.4013  316.4100 C   0  0  0  0  0
   43.9853   26.5345  315.3091 C   0  0  0  0  0
   44.2125   27.0034  314.0112 C   0  0  0  0  0
   44.6228   28.3206  313.7967 C   0  0  0  0  0
   44.8065   29.1794  314.8809 C   0  0  0  0  0
   44.5797   28.7203  316.1797 C   0  0  0  0  0
   44.5329   24.6507  320.4650 C   0  0  0  0  0
   44.4508   21.7608  321.2535 C   0  0  0  0  0
   44.8482   20.5116  322.0355 C   0  0  0  0  0
   45.8287   20.8908  323.1405 C   0  0  0  0  0
   47.0264   21.6295  322.5519 C   0  0  0  0  0
   46.5405   22.8334  321.7490 C   0  0  0  0  0
   44.4793   25.7805  318.2582 N   0  0  0  0  0
   43.3520   27.6621  318.7791 N   0  0  0  0  0
   45.2407   23.5191  319.9312 N   0  0  0  0  0
   45.6416   22.3929  320.6783 N   0  0  0  0  0
   40.4874   32.5104  318.3073 O   0  0  0  0  0
   44.2242   24.6916  321.6866 O   0  0  0  0  0
   38.7872   34.6635  315.1076 F   0  0  0  0  0
   44.9044   28.8949  312.1678 Cl  0  0  0  0  0
   43.4315   24.8767  315.4989 Cl  0  0  0  0  0
  1  2  1  0  0  0
  3 26  1  0  0  0
  3 20  1  0  0  0
  4 27  1  0  0  0
  4 14  1  0  0  0
  6  7  1  0  0  0
  8  9  1  0  0  0
  8 30  1  0  0  0
 10  5  1  0  0  0
 11 30  1  0  0  0
 11 12  1  0  0  0
 12 13  1  0  0  0
 13 32  1  0  0  0
 15 16  1  0  0  0
 15 34  1  0  0  0
 17 18  1  0  0  0
 17 33  1  0  0  0
 19 14  1  0  0  0
 20 28  1  0  0  0
 21 29  1  0  0  0
 21 22  1  0  0  0
 22 23  1  0  0  0
 23 24  1  0  0  0
 24 25  1  0  0  0
 25 29  1  0  0  0
 27  5  1  0  0  0
 27  2  1  0  0  0
 28 29  1  0  0  0
  2  3  2  0  0  0
  4 26  2  0  0  0
  5  6  2  0  0  0
  7  8  2  0  0  0
  9 10  2  0  0  0
 14 15  2  0  0  0
 16 17  2  0  0  0
 18 19  2  0  0  0
 20 31  2  0  0  0
M  END
> <rmsd>
0.385823488

$$$$
CHEMBL1269019_5TGZ


 55 60  0  0  0  0  0  0  0  0999 V2000
   43.4843   14.4595  322.9431 C   0  0  0  0  0
   44.5224   14.0266  323.9253 C   0  0  0  0  0
   45.5382   14.8001  324.4654 C   0  0  0  0  0
   45.8000   16.2271  324.2186 C   0  0  0  0  0
   47.3588   18.2064  324.4753 C   0  0  0  0  0
   47.8862   18.2879  323.0531 C   0  0  0  0  0
   48.2523   19.7211  322.6954 C   0  0  0  0  0
   46.4672   20.3821  321.3132 C   0  0  0  0  0
   46.3619   21.7165  320.5913 C   0  0  0  0  0
   45.3289   22.6040  321.2582 C   0  0  0  0  0
   44.2101   24.8231  320.8315 C   0  0  0  0  0
   43.9100   25.9199  319.8972 C   0  0  0  0  0
   44.1545   27.3764  316.6891 C   0  0  0  0  0
   45.4666   27.6431  316.2773 C   0  0  0  0  0
   45.7406   27.9460  314.9412 C   0  0  0  0  0
   44.7028   27.9742  314.0065 C   0  0  0  0  0
   43.3945   27.6880  314.4042 C   0  0  0  0  0
   43.1131   27.3856  315.7399 C   0  0  0  0  0
   43.1725   27.7710  318.9580 C   0  0  0  0  0
   42.5486   29.0997  318.7199 C   0  0  0  0  0
   43.0403   29.9609  317.7273 C   0  0  0  0  0
   42.4512   31.2102  317.5105 C   0  0  0  0  0
   41.3652   31.6127  318.2897 C   0  0  0  0  0
   40.8662   30.7661  319.2825 C   0  0  0  0  0
   41.4564   29.5174  319.4956 C   0  0  0  0  0
   43.1528   27.0531  320.1464 C   0  0  0  0  0
   42.5191   27.4442  321.4418 C   0  0  0  0  0
   46.4342   11.7219  325.9556 C   0  0  0  0  0
   47.7727   11.3895  325.7108 C   0  0  0  0  0
   48.3810   10.3435  326.4092 C   0  0  0  0  0
   47.6548    9.6247  327.3613 C   0  0  0  0  0
   46.3270    9.9649  327.6312 C   0  0  0  0  0
   45.7126   11.0136  326.9398 C   0  0  0  0  0
   44.7507   12.7458  324.4064 C   0  0  0  0  0
   44.0250   11.5158  324.0017 C   0  0  0  0  0
   42.6709   11.5746  323.6396 C   0  0  0  0  0
   41.9950   10.4217  323.2271 C   0  0  0  0  0
   42.6681    9.1995  323.1718 C   0  0  0  0  0
   44.0152    9.1290  323.5330 C   0  0  0  0  0
   44.6892   10.2824  323.9436 C   0  0  0  0  0
   45.0070   16.9068  323.5124 O   0  0  0  0  0
   43.7178   24.8235  321.9914 O   0  0  0  0  0
   46.9662   16.8376  324.7789 N   0  0  0  0  0
   47.0646   20.5622  322.6282 N   0  0  0  0  0
   45.0831   23.7672  320.4229 N   0  0  0  0  0
   44.3529   25.9492  318.6260 N   0  0  0  0  0
   43.9039   27.0610  318.0628 N   0  0  0  0  0
   46.3206   14.0291  325.2432 N   0  0  0  0  0
   45.8370   12.7963  325.2166 N   0  0  0  0  0
   45.0434   28.3495  312.3309 Cl  0  0  0  0  0
   41.4612   26.9861  316.1811 Cl  0  0  0  0  0
   40.6201   33.1723  318.0150 Cl  0  0  0  0  0
   48.4156    8.3101  328.2319 Cl  0  0  0  0  0
   44.0649   11.4431  327.3698 Cl  0  0  0  0  0
   41.8244    7.7591  322.6474 Cl  0  0  0  0  0
  1  2  1  0  0  0
  2  3  1  0  0  0
  3  4  1  0  0  0
  4 43  1  0  0  0
  5 43  1  0  0  0
  5  6  1  0  0  0
  6  7  1  0  0  0
  7 44  1  0  0  0
  8 44  1  0  0  0
  8  9  1  0  0  0
  9 10  1  0  0  0
 10 45  1  0  0  0
 11 12  1  0  0  0
 14 15  1  0  0  0
 16 50  1  0  0  0
 16 17  1  0  0  0
 18 51  1  0  0  0
 18 13  1  0  0  0
 19 20  1  0  0  0
 21 22  1  0  0  0
 23 52  1  0  0  0
 23 24  1  0  0  0
 25 20  1  0  0  0
 26 12  1  0  0  0
 27 26  1  0  0  0
 29 30  1  0  0  0
 31 53  1  0  0  0
 31 32  1  0  0  0
 33 54  1  0  0  0
 33 28  1  0  0  0
 34 35  1  0  0  0
 36 37  1  0  0  0
 38 55  1  0  0  0
 38 39  1  0  0  0
 40 35  1  0  0  0
 45 11  1  0  0  0
 47 46  1  0  0  0
 47 13  1  0  0  0
 47 19  1  0  0  0
 49 48  1  0  0  0
 49 28  1  0  0  0
 49 34  1  0  0  0
  3 48  2  0  0  0
  4 41  2  0  0  0
 11 42  2  0  0  0
 12 46  2  0  0  0
 13 14  2  0  0  0
 15 16  2  0  0  0
 17 18  2  0  0  0
 19 26  2  0  0  0
 20 21  2  0  0  0
 22 23  2  0  0  0
 24 25  2  0  0  0
 28 29  2  0  0  0
 30 31  2  0  0  0
 32 33  2  0  0  0
 34  2  2  0  0  0
 35 36  2  0  0  0
 37 38  2  0  0  0
 39 40  2  0  0  0
M  END
> <rmsd>
0.459706247

$$$$
CHEMBL4085407_6KQI


 40 43  0  0  0  0  0  0  0  0999 V2000
   42.6786   27.4541  321.3229 C   0  0  0  0  0
   43.3805   27.1061  320.0493 C   0  0  0  0  0
   44.1262   25.9664  319.8107 C   0  0  0  0  0
   44.0389   27.1036  318.0081 C   0  0  0  0  0
   42.5710   29.0342  318.6802 C   0  0  0  0  0
   41.9021   29.2433  317.4647 C   0  0  0  0  0
   41.1847   30.4214  317.2441 C   0  0  0  0  0
   41.1245   31.4091  318.2380 C   0  0  0  0  0
   41.7881   31.2025  319.4508 C   0  0  0  0  0
   42.5057   30.0241  319.6714 C   0  0  0  0  0
   38.7919   34.5709  316.7838 C   0  0  0  0  0
   37.8049   34.5732  317.9419 C   0  0  0  0  0
   38.3252   35.3805  319.1236 C   0  0  0  0  0
   44.2758   27.4919  316.6067 C   0  0  0  0  0
   44.9371   28.6906  316.2617 C   0  0  0  0  0
   45.1300   29.0128  314.9152 C   0  0  0  0  0
   44.6789   28.1514  313.9117 C   0  0  0  0  0
   44.0539   26.9503  314.2511 C   0  0  0  0  0
   43.8576   26.6214  315.5941 C   0  0  0  0  0
   44.4400   24.8879  320.7614 C   0  0  0  0  0
   45.6253   22.7006  321.2277 C   0  0  0  0  0
   44.4516   21.7208  321.2782 C   0  0  0  0  0
   44.7846   20.5547  322.2038 C   0  0  0  0  0
   46.0383   19.8344  321.7152 C   0  0  0  0  0
   47.2199   20.8037  321.6556 C   0  0  0  0  0
   46.9086   22.0034  320.7572 C   0  0  0  0  0
   44.5392   25.9619  318.5280 N   0  0  0  0  0
   43.3201   27.8234  318.9070 N   0  0  0  0  0
   45.3086   23.8259  320.3584 N   0  0  0  0  0
   46.7963   21.5751  319.3690 N   0  0  0  0  0
   40.4178   32.6001  318.0511 O   0  0  0  0  0
   40.4914   32.9827  315.4527 O   0  0  0  0  0
   38.4868   31.9311  316.3961 O   0  0  0  0  0
   43.9555   24.9012  321.9252 O   0  0  0  0  0
   39.5507   32.9681  316.6237 S   0  0  0  0  0
   37.3878   35.3457  320.1375 F   0  0  0  0  0
   39.5111   34.8438  319.5899 F   0  0  0  0  0
   38.5313   36.6948  318.7452 F   0  0  0  0  0
   44.9228   28.5656  312.2291 Cl  0  0  0  0  0
   45.5814   29.7867  317.4750 Cl  0  0  0  0  0
  1  2  1  0  0  0
  3 27  1  0  0  0
  3 20  1  0  0  0
  4 28  1  0  0  0
  4 14  1  0  0  0
  6  7  1  0  0  0
  8  9  1  0  0  0
  8 31  1  0  0  0
 10  5  1  0  0  0
 11 12  1  0  0  0
 12 13  1  0  0  0
 13 36  1  0  0  0
 13 37  1  0  0  0
 13 38  1  0  0  0
 15 16  1  0  0  0
 15 40  1  0  0  0
 17 18  1  0  0  0
 17 39  1  0  0  0
 19 14  1  0  0  0
 20 29  1  0  0  0
 21 29  1  0  0  0
 21 22  1  0  0  0
 22 23  1  0  0  0
 23 24  1  0  0  0
 24 25  1  0  0  0
 25 26  1  0  0  0
 26 30  1  0  0  0
 26 21  1  0  0  0
 28  5  1  0  0  0
 28  2  1  0  0  0
 35 31  1  0  0  0
 35 11  1  0  0  0
  2  3  2  0  0  0
  4 27  2  0  0  0
  5  6  2  0  0  0
  7  8  2  0  0  0
  9 10  2  0  0  0
 14 15  2  0  0  0
 16 17  2  0  0  0
 18 19  2  0  0  0
 20 34  2  0  0  0
 35 32  2  0  0  0
 35 33  2  0  0  0
M  END
> <rmsd>
0.244352773

$$$$
CHEMBL2030935_5TGZ


 36 39  0  0  0  0  0  0  0  0999 V2000
   43.2114   27.9662  318.9296 C   0  0  0  0  0
   43.9638   26.1402  319.9010 C   0  0  0  0  0
   43.2408   27.2976  320.1445 C   0  0  0  0  0
   42.5663   27.6896  321.4173 C   0  0  0  0  0
   44.2729   25.0629  320.8540 C   0  0  0  0  0
   45.3449   22.8118  321.2896 C   0  0  0  0  0
   46.4301   21.9517  320.6444 C   0  0  0  0  0
   46.7690   20.7618  321.5413 C   0  0  0  0  0
   45.5180   19.9248  321.7934 C   0  0  0  0  0
   44.0942   21.9694  321.5408 C   0  0  0  0  0
   43.8182   20.4969  323.5610 C   0  0  0  0  0
   42.1379   21.1573  325.3398 C   0  0  0  0  0
   40.8990   22.0244  325.4120 C   0  0  0  0  0
   43.0715   21.5291  326.4760 C   0  0  0  0  0
   44.1813   27.5338  316.6604 C   0  0  0  0  0
   43.6981   26.6807  315.6599 C   0  0  0  0  0
   43.9508   26.9553  314.3139 C   0  0  0  0  0
   44.6961   28.0816  313.9592 C   0  0  0  0  0
   45.2019   28.9256  314.9506 C   0  0  0  0  0
   44.9532   28.6575  316.3000 C   0  0  0  0  0
   42.4882   29.2287  318.6372 C   0  0  0  0  0
   41.9737   29.4786  317.3561 C   0  0  0  0  0
   41.2922   30.6675  317.0829 C   0  0  0  0  0
   41.1157   31.6177  318.0912 C   0  0  0  0  0
   41.6178   31.3775  319.3724 C   0  0  0  0  0
   42.2997   30.1880  319.6434 C   0  0  0  0  0
   43.9085   27.2245  318.0330 N   0  0  0  0  0
   44.3557   26.1208  318.6123 N   0  0  0  0  0
   45.0251   23.9289  320.4142 N   0  0  0  0  0
   44.4555   20.7829  322.3098 N   0  0  0  0  0
   42.8009   21.3706  324.0623 N   0  0  0  0  0
   43.8824   25.1381  322.0505 O   0  0  0  0  0
   44.1516   19.4742  324.2200 O   0  0  0  0  0
   45.6636   29.7166  317.5078 Cl  0  0  0  0  0
   45.0108   28.4269  312.2728 Cl  0  0  0  0  0
   40.2631   33.1074  317.7502 Cl  0  0  0  0  0
  1 27  1  0  0  0
  1 21  1  0  0  0
  2  3  1  0  0  0
  2  5  1  0  0  0
  4  3  1  0  0  0
  5 29  1  0  0  0
  6 29  1  0  0  0
  6  7  1  0  0  0
  7  8  1  0  0  0
  8  9  1  0  0  0
  9 30  1  0  0  0
 10 30  1  0  0  0
 10  6  1  0  0  0
 11 31  1  0  0  0
 12 31  1  0  0  0
 12 13  1  0  0  0
 12 14  1  0  0  0
 16 17  1  0  0  0
 18 19  1  0  0  0
 18 35  1  0  0  0
 20 34  1  0  0  0
 20 15  1  0  0  0
 22 23  1  0  0  0
 24 25  1  0  0  0
 24 36  1  0  0  0
 26 21  1  0  0  0
 27 28  1  0  0  0
 27 15  1  0  0  0
 30 11  1  0  0  0
  2 28  2  0  0  0
  3  1  2  0  0  0
  5 32  2  0  0  0
 11 33  2  0  0  0
 15 16  2  0  0  0
 17 18  2  0  0  0
 19 20  2  0  0  0
 21 22  2  0  0  0
 23 24  2  0  0  0
 25 26  2  0  0  0
M  END
> <rmsd>
0.407900721

$$$$
CHEMBL2030933_5TGZ


 34 37  0  0  0  0  0  0  0  0999 V2000
   42.9856   27.0500  321.2881 C   0  0  0  0  0
   43.6144   26.8389  319.9507 C   0  0  0  0  0
   44.4167   25.7783  319.5594 C   0  0  0  0  0
   44.8722   24.6499  320.3863 C   0  0  0  0  0
   46.2594   22.4585  320.4513 C   0  0  0  0  0
   45.1962   21.4585  320.9227 C   0  0  0  0  0
   44.7035   21.7521  322.3376 C   0  0  0  0  0
   45.8903   21.9869  323.2641 C   0  0  0  0  0
   48.8489   24.8745  323.4486 C   0  0  0  0  0
   47.2925   22.8040  321.5316 C   0  0  0  0  0
   44.3301   27.4837  316.4648 C   0  0  0  0  0
   43.8623   26.6895  315.4100 C   0  0  0  0  0
   44.0139   27.1109  314.0869 C   0  0  0  0  0
   44.6421   28.3268  313.8092 C   0  0  0  0  0
   45.1325   29.1147  314.8531 C   0  0  0  0  0
   44.9845   28.6997  316.1801 C   0  0  0  0  0
   43.4590   27.6130  318.8104 C   0  0  0  0  0
   42.6179   28.8286  318.6797 C   0  0  0  0  0
   42.4084   29.6689  319.7834 C   0  0  0  0  0
   41.6157   30.8138  319.6647 C   0  0  0  0  0
   41.0226   31.1280  318.4396 C   0  0  0  0  0
   41.2193   30.2959  317.3353 C   0  0  0  0  0
   42.0116   29.1513  317.4563 C   0  0  0  0  0
   44.5397   24.5815  321.5985 O   0  0  0  0  0
   48.8090   22.2689  324.0797 O   0  0  0  0  0
   47.2819   23.7508  325.2992 O   0  0  0  0  0
   45.6958   23.6375  319.7935 N   0  0  0  0  0
   46.6482   23.1467  322.7997 N   0  0  0  0  0
   44.7340   25.9148  318.2574 N   0  0  0  0  0
   44.1629   27.0235  317.8120 N   0  0  0  0  0
   47.8990   23.4604  323.9597 S   0  0  0  0  0
   44.8299   28.8560  312.1518 Cl  0  0  0  0  0
   45.6730   29.6984  317.4504 Cl  0  0  0  0  0
   40.0311   32.5621  318.2893 Cl  0  0  0  0  0
  1  2  1  0  0  0
  2  3  1  0  0  0
  3  4  1  0  0  0
  4 27  1  0  0  0
  5 27  1  0  0  0
  5  6  1  0  0  0
  6  7  1  0  0  0
  7  8  1  0  0  0
  8 28  1  0  0  0
 10 28  1  0  0  0
 10  5  1  0  0  0
 12 13  1  0  0  0
 14 32  1  0  0  0
 14 15  1  0  0  0
 16 33  1  0  0  0
 16 11  1  0  0  0
 17 18  1  0  0  0
 19 20  1  0  0  0
 21 34  1  0  0  0
 21 22  1  0  0  0
 23 18  1  0  0  0
 30 29  1  0  0  0
 30 11  1  0  0  0
 30 17  1  0  0  0
 31 28  1  0  0  0
 31  9  1  0  0  0
  3 29  2  0  0  0
  4 24  2  0  0  0
 11 12  2  0  0  0
 13 14  2  0  0  0
 15 16  2  0  0  0
 17  2  2  0  0  0
 18 19  2  0  0  0
 20 21  2  0  0  0
 22 23  2  0  0  0
 31 25  2  0  0  0
 31 26  2  0  0  0
M  END
> <rmsd>
0.584468305

$$$$
CHEMBL368660_5TGZ


 30 33  0  0  0  0  0  0  0  0999 V2000
   42.7989   27.5300  321.3339 C   0  0  0  0  0
   43.4247   27.1348  320.0352 C   0  0  0  0  0
   44.1546   25.9857  319.7951 C   0  0  0  0  0
   44.5245   24.9399  320.7621 C   0  0  0  0  0
   44.4734   21.8780  321.3070 C   0  0  0  0  0
   44.7443   20.7555  322.3167 C   0  0  0  0  0
   46.2410   20.5351  322.5522 C   0  0  0  0  0
   47.0294   20.6974  321.2540 C   0  0  0  0  0
   46.7229   22.0340  320.5553 C   0  0  0  0  0
   43.9532   27.0531  317.9558 C   0  0  0  0  0
   44.1665   27.4296  316.5417 C   0  0  0  0  0
   44.5651   28.7400  316.2391 C   0  0  0  0  0
   44.8083   29.1237  314.9189 C   0  0  0  0  0
   44.6619   28.1971  313.8860 C   0  0  0  0  0
   44.2730   26.8874  314.1733 C   0  0  0  0  0
   44.0292   26.4939  315.4932 C   0  0  0  0  0
   42.5308   29.0062  318.6405 C   0  0  0  0  0
   42.4992   30.0301  319.5975 C   0  0  0  0  0
   41.7504   31.1812  319.3499 C   0  0  0  0  0
   41.0405   31.3024  318.1555 C   0  0  0  0  0
   41.0888   30.2650  317.2236 C   0  0  0  0  0
   44.1895   25.0399  321.9731 O   0  0  0  0  0
   45.2738   23.8053  320.3201 N   0  0  0  0  0
   45.6288   22.7696  321.1964 N   0  0  0  0  0
   44.4920   25.9355  318.4916 N   0  0  0  0  0
   43.2972   27.8092  318.8728 N   0  0  0  0  0
   41.8242   29.1510  317.4835 N   0  0  0  0  0
   44.9647   28.6765  312.2305 Cl  0  0  0  0  0
   43.5054   24.8395  315.7748 Cl  0  0  0  0  0
   40.0975   32.7400  317.8295 Cl  0  0  0  0  0
  1  2  1  0  0  0
  3  4  1  0  0  0
  3 25  1  0  0  0
  4 23  1  0  0  0
  5 24  1  0  0  0
  5  6  1  0  0  0
  6  7  1  0  0  0
  7  8  1  0  0  0
  8  9  1  0  0  0
  9 24  1  0  0  0
 10 11  1  0  0  0
 10 26  1  0  0  0
 12 13  1  0  0  0
 14 28  1  0  0  0
 14 15  1  0  0  0
 16 29  1  0  0  0
 16 11  1  0  0  0
 17 27  1  0  0  0
 18 19  1  0  0  0
 20 30  1  0  0  0
 20 21  1  0  0  0
 23 24  1  0  0  0
 26 17  1  0  0  0
 26  2  1  0  0  0
  2  3  2  0  0  0
  4 22  2  0  0  0
 10 25  2  0  0  0
 11 12  2  0  0  0
 13 14  2  0  0  0
 15 16  2  0  0  0
 17 18  2  0  0  0
 19 20  2  0  0  0
 21 27  2  0  0  0
M  END
> <rmsd>
0.188196063

$$$$
CHEMBL1631291_5TGZ


 31 33  0  0  0  0  0  0  0  0999 V2000
   48.7678   19.5652  320.9908 C   0  0  0  0  0
   49.3751   20.0751  322.2836 C   0  0  0  0  0
   48.8572   21.4681  322.6063 C   0  0  0  0  0
   47.5267   21.4073  323.3478 C   0  0  0  0  0
   46.3623   21.1723  322.3980 C   0  0  0  0  0
   46.0739   22.4254  321.5940 C   0  0  0  0  0
   44.9209   22.1617  320.6442 C   0  0  0  0  0
   44.0522   24.5354  320.4392 C   0  0  0  0  0
   43.8250   25.7152  319.5910 C   0  0  0  0  0
   44.0495   27.3766  316.4613 C   0  0  0  0  0
   44.5333   28.6746  316.2327 C   0  0  0  0  0
   44.8111   29.1143  314.9373 C   0  0  0  0  0
   44.6102   28.2589  313.8535 C   0  0  0  0  0
   44.1271   26.9663  314.0647 C   0  0  0  0  0
   43.8484   26.5166  315.3593 C   0  0  0  0  0
   43.2670   27.6797  318.8146 C   0  0  0  0  0
   43.0656   30.1047  319.3406 C   0  0  0  0  0
   44.1700   30.1748  320.3395 C   0  0  0  0  0
   42.3047   31.1881  318.9443 C   0  0  0  0  0
   41.4243   30.7074  317.9833 C   0  0  0  0  0
   41.7079   29.3621  317.8453 C   0  0  0  0  0
   40.9666   28.4367  316.9412 C   0  0  0  0  0
   43.2688   26.9276  319.9701 C   0  0  0  0  0
   42.7131   27.3119  321.2994 C   0  0  0  0  0
   44.6264   23.3568  319.8670 N   0  0  0  0  0
   44.1390   25.7555  318.2785 N   0  0  0  0  0
   43.7891   26.9446  317.8082 N   0  0  0  0  0
   42.7072   28.9949  318.6691 N   0  0  0  0  0
   43.7403   24.5596  321.6607 O   0  0  0  0  0
   44.9562   28.8090  312.2287 Cl  0  0  0  0  0
   43.1888   24.8988  315.5427 Cl  0  0  0  0  0
  1  2  1  0  0  0
  2  3  1  0  0  0
  3  4  1  0  0  0
  4  5  1  0  0  0
  5  6  1  0  0  0
  6  7  1  0  0  0
  7 25  1  0  0  0
  8  9  1  0  0  0
 11 12  1  0  0  0
 13 30  1  0  0  0
 13 14  1  0  0  0
 15 31  1  0  0  0
 15 10  1  0  0  0
 16 28  1  0  0  0
 18 17  1  0  0  0
 19 20  1  0  0  0
 21 28  1  0  0  0
 22 21  1  0  0  0
 23  9  1  0  0  0
 24 23  1  0  0  0
 25  8  1  0  0  0
 27 26  1  0  0  0
 27 10  1  0  0  0
 27 16  1  0  0  0
 28 17  1  0  0  0
  8 29  2  0  0  0
  9 26  2  0  0  0
 10 11  2  0  0  0
 12 13  2  0  0  0
 14 15  2  0  0  0
 16 23  2  0  0  0
 17 19  2  0  0  0
 20 21  2  0  0  0
M  END
> <rmsd>
0.532646418

$$$$
CHEMBL462052_5TGZ


 35 39  0  0  0  0  0  0  0  0999 V2000
   37.8942   35.1121  315.1684 C   0  0  0  0  0
   38.7274   34.1631  316.0032 C   0  0  0  0  0
   39.1379   32.9677  315.1544 C   0  0  0  0  0
   39.9728   31.9599  315.8911 C   0  0  0  0  0
   40.3300   32.0831  317.1678 C   0  0  0  0  0
   41.1470   31.0716  317.8433 C   0  0  0  0  0
   41.5480   31.1472  319.1690 C   0  0  0  0  0
   42.3213   30.0481  319.5694 C   0  0  0  0  0
   42.5328   29.1219  318.5521 C   0  0  0  0  0
   43.2670   27.8455  318.6991 C   0  0  0  0  0
   43.3888   27.1064  319.8642 C   0  0  0  0  0
   42.8377   27.4361  321.2116 C   0  0  0  0  0
   44.0744   25.9609  319.4924 C   0  0  0  0  0
   44.4548   24.8287  320.3508 C   0  0  0  0  0
   44.4223   21.9305  321.0906 C   0  0  0  0  0
   44.8408   21.4135  322.4535 C   0  0  0  0  0
   45.1137   19.9211  322.3809 C   0  0  0  0  0
   46.6086   19.7698  322.2144 C   0  0  0  0  0
   47.2069   20.9929  322.8712 C   0  0  0  0  0
   46.1620   22.0900  322.7634 C   0  0  0  0  0
   46.4622   22.9755  321.5695 C   0  0  0  0  0
   44.0901   27.5822  316.3503 C   0  0  0  0  0
   44.7473   28.7976  316.1076 C   0  0  0  0  0
   44.9948   29.2193  314.7995 C   0  0  0  0  0
   44.5929   28.4260  313.7231 C   0  0  0  0  0
   43.9460   27.2098  313.9543 C   0  0  0  0  0
   43.6973   26.7798  315.2614 C   0  0  0  0  0
   44.1647   24.8368  321.5775 O   0  0  0  0  0
   45.1603   23.7154  319.7756 N   0  0  0  0  0
   45.5824   22.5688  320.4802 N   0  0  0  0  0
   44.3595   26.0190  318.1771 N   0  0  0  0  0
   43.8685   27.1537  317.7010 N   0  0  0  0  0
   44.8997   28.9555  312.0837 Cl  0  0  0  0  0
   42.8530   25.2583  315.4977 Cl  0  0  0  0  0
   41.7390   29.6509  317.1646 S   0  0  0  0  0
  1  2  1  0  0  0
  2  3  1  0  0  0
  3  4  1  0  0  0
  5  6  1  0  0  0
  6 35  1  0  0  0
  7  8  1  0  0  0
  9 10  1  0  0  0
  9 35  1  0  0  0
 11 13  1  0  0  0
 12 11  1  0  0  0
 13 14  1  0  0  0
 14 29  1  0  0  0
 15 30  1  0  0  0
 16 15  1  0  0  0
 16 17  1  0  0  0
 17 18  1  0  0  0
 18 19  1  0  0  0
 20 19  1  0  0  0
 20 21  1  0  0  0
 20 16  1  0  0  0
 21 30  1  0  0  0
 23 24  1  0  0  0
 25 33  1  0  0  0
 25 26  1  0  0  0
 27 34  1  0  0  0
 27 22  1  0  0  0
 29 30  1  0  0  0
 32 31  1  0  0  0
 32 22  1  0  0  0
 32 10  1  0  0  0
  4  5  2  0  0  0
  6  7  2  0  0  0
  8  9  2  0  0  0
 10 11  2  0  0  0
 13 31  2  0  0  0
 14 28  2  0  0  0
 22 23  2  0  0  0
 24 25  2  0  0  0
 26 27  2  0  0  0
M  END
> <rmsd>
0.524520993

$$$$
CHEMBL15966_5TGZ


 32 36  0  0  0  0  0  0  0  0999 V2000
   43.8947   25.0347  321.7816 O   0  0  0  0  0
   44.3965   25.0324  320.6258 C   0  0  0  0  0
   44.5642   21.9470  321.0182 C   0  0  0  0  0
   45.2046   20.5743  321.0813 C   0  0  0  0  0
   45.1136   20.0226  322.4938 C   0  0  0  0  0
   46.4360   20.3324  323.1578 C   0  0  0  0  0
   47.4424   20.3866  322.0311 C   0  0  0  0  0
   46.6726   20.8034  320.7894 C   0  0  0  0  0
   46.8104   22.2973  320.5700 C   0  0  0  0  0
   44.0663   26.0938  319.6616 C   0  0  0  0  0
   44.0466   27.2461  317.8640 C   0  0  0  0  0
   44.2809   27.6197  316.4513 C   0  0  0  0  0
   43.1939   28.0366  315.6686 C   0  0  0  0  0
   43.3688   28.3683  314.3239 C   0  0  0  0  0
   44.6348   28.2807  313.7441 C   0  0  0  0  0
   45.7251   27.8624  314.5091 C   0  0  0  0  0
   45.5587   27.5261  315.8564 C   0  0  0  0  0
   42.5805   29.1771  318.5122 C   0  0  0  0  0
   41.2324   29.3459  318.8593 C   0  0  0  0  0
   40.5989   30.5748  318.6541 C   0  0  0  0  0
   41.3093   31.6432  318.1006 C   0  0  0  0  0
   42.6535   31.4842  317.7538 C   0  0  0  0  0
   43.2872   30.2559  317.9594 C   0  0  0  0  0
   43.2427   27.1889  319.8586 C   0  0  0  0  0
   45.2968   23.9901  320.2422 N   0  0  0  0  0
   45.6249   22.9420  321.1143 N   0  0  0  0  0
   44.5660   26.1259  318.4104 N   0  0  0  0  0
   43.2324   27.9126  318.7202 N   0  0  0  0  0
   44.8565   28.6977  312.0591 Cl  0  0  0  0  0
   46.9865   27.0496  316.7650 Cl  0  0  0  0  0
   40.5155   33.1814  317.8427 Cl  0  0  0  0  0
   42.3565   27.6843  321.4889 Br  0  0  0  0  0
  2 25  1  0  0  0
  2 10  1  0  0  0
  3 26  1  0  0  0
  4  3  1  0  0  0
  4  5  1  0  0  0
  5  6  1  0  0  0
  6  7  1  0  0  0
  8  7  1  0  0  0
  8  9  1  0  0  0
  8  4  1  0  0  0
  9 26  1  0  0  0
 10 27  1  0  0  0
 11 12  1  0  0  0
 11 28  1  0  0  0
 13 14  1  0  0  0
 15 29  1  0  0  0
 15 16  1  0  0  0
 17 30  1  0  0  0
 17 12  1  0  0  0
 19 20  1  0  0  0
 21 31  1  0  0  0
 21 22  1  0  0  0
 23 18  1  0  0  0
 24 32  1  0  0  0
 25 26  1  0  0  0
 28 18  1  0  0  0
 28 24  1  0  0  0
  2  1  2  0  0  0
 11 27  2  0  0  0
 12 13  2  0  0  0
 14 15  2  0  0  0
 16 17  2  0  0  0
 18 19  2  0  0  0
 20 21  2  0  0  0
 22 23  2  0  0  0
 24 10  2  0  0  0
M  END
> <rmsd>
0.530529082

$$$$
CHEMBL575382_5TGZ


 34 39  0  0  0  0  0  0  0  0999 V2000
   45.4175   19.6628  321.3779 C   0  0  0  0  0
   46.6700   20.3446  320.8038 C   0  0  0  0  0
   46.2480   21.5882  320.0038 C   0  0  0  0  0
   45.4977   22.5758  320.9136 C   0  0  0  0  0
   44.2487   21.8752  321.4833 C   0  0  0  0  0
   44.6629   20.6381  322.2953 C   0  0  0  0  0
   45.5876   21.0720  323.4448 C   0  0  0  0  0
   46.8447   21.7556  322.8817 C   0  0  0  0  0
   47.5866   20.7737  321.9608 C   0  0  0  0  0
   46.4287   22.9918  322.0692 C   0  0  0  0  0
   44.3939   24.8737  320.6407 C   0  0  0  0  0
   44.0646   25.9886  319.7402 C   0  0  0  0  0
   43.3128   27.8462  318.8704 C   0  0  0  0  0
   43.3690   27.1449  320.0555 C   0  0  0  0  0
   42.7342   27.5158  321.3529 C   0  0  0  0  0
   42.7984   30.2527  319.2306 C   0  0  0  0  0
   41.8560   31.1794  318.8269 C   0  0  0  0  0
   40.9963   30.5036  317.9695 C   0  0  0  0  0
   41.4707   29.2075  317.8979 C   0  0  0  0  0
   40.8236   28.1161  317.1147 C   0  0  0  0  0
   43.9313   30.5501  320.1527 C   0  0  0  0  0
   44.1698   27.5065  316.5334 C   0  0  0  0  0
   44.5237   26.5244  315.5974 C   0  0  0  0  0
   44.7674   26.8623  314.2629 C   0  0  0  0  0
   44.6649   28.2022  313.8533 C   0  0  0  0  0
   44.3255   29.1871  314.7845 C   0  0  0  0  0
   44.0834   28.8426  316.1158 C   0  0  0  0  0
   45.1107   23.7435  320.1277 N   0  0  0  0  0
   44.4031   26.0106  318.4337 N   0  0  0  0  0
   43.9459   27.1385  317.9063 N   0  0  0  0  0
   42.5707   29.0569  318.6583 N   0  0  0  0  0
   44.0495   24.9125  321.8529 O   0  0  0  0  0
   44.9597   28.6802  312.1898 Cl  0  0  0  0  0
   45.1996   25.5870  313.1364 Cl  0  0  0  0  0
  1  2  1  0  0  0
  2  3  1  0  0  0
  3  4  1  0  0  0
  4  5  1  0  0  0
  4 28  1  0  0  0
  5  6  1  0  0  0
  6  7  1  0  0  0
  6  1  1  0  0  0
  7  8  1  0  0  0
  8  9  1  0  0  0
  8 10  1  0  0  0
  9  2  1  0  0  0
 10  4  1  0  0  0
 11 12  1  0  0  0
 13 31  1  0  0  0
 14 12  1  0  0  0
 15 14  1  0  0  0
 17 18  1  0  0  0
 19 31  1  0  0  0
 20 19  1  0  0  0
 21 16  1  0  0  0
 23 24  1  0  0  0
 24 34  1  0  0  0
 25 26  1  0  0  0
 25 33  1  0  0  0
 27 22  1  0  0  0
 28 11  1  0  0  0
 30 29  1  0  0  0
 30 13  1  0  0  0
 30 22  1  0  0  0
 31 16  1  0  0  0
 11 32  2  0  0  0
 12 29  2  0  0  0
 13 14  2  0  0  0
 16 17  2  0  0  0
 18 19  2  0  0  0
 22 23  2  0  0  0
 24 25  2  0  0  0
 26 27  2  0  0  0
M  END
> <rmsd>
0.234106481

$$$$
CHEMBL521277_6N4B


 33 36  0  0  0  0  0  0  0  0999 V2000
   45.4549   22.5506  318.7190 O   0  0  0  0  0
   44.5340   23.1560  319.3297 C   0  0  0  0  0
   43.2332   23.3969  318.6471 C   0  0  0  0  0
   43.4920   26.4176  316.8306 C   0  0  0  0  0
   43.8799   27.2020  315.6457 C   0  0  0  0  0
   43.3809   26.8099  314.3975 C   0  0  0  0  0
   43.7152   27.5228  313.2443 C   0  0  0  0  0
   44.5592   28.6308  313.3293 C   0  0  0  0  0
   45.0856   29.0140  314.5642 C   0  0  0  0  0
   44.7565   28.3063  315.7245 C   0  0  0  0  0
   42.9227   26.8648  318.0169 C   0  0  0  0  0
   42.4507   28.2280  318.3504 C   0  0  0  0  0
   41.9659   29.0501  317.3212 C   0  0  0  0  0
   41.4944   30.3355  317.5933 C   0  0  0  0  0
   41.5001   30.8153  318.9022 C   0  0  0  0  0
   41.9800   30.0118  319.9377 C   0  0  0  0  0
   42.4527   28.7218  319.6754 C   0  0  0  0  0
   45.9783   23.4405  321.3915 C   0  0  0  0  0
   46.0347   22.0501  321.9268 C   0  0  0  0  0
   45.3078   21.7097  323.0730 C   0  0  0  0  0
   45.3498   20.4020  323.5658 C   0  0  0  0  0
   46.1164   19.4324  322.9112 C   0  0  0  0  0
   46.8404   19.7702  321.7640 C   0  0  0  0  0
   46.7988   21.0779  321.2711 C   0  0  0  0  0
   43.1954   24.7504  318.1211 N   0  0  0  0  0
   43.6504   25.0847  316.9241 N   0  0  0  0  0
   42.7511   25.7901  318.8095 N   0  0  0  0  0
   44.7398   23.6514  320.6541 N   0  0  0  0  0
   44.9767   29.5259  311.8849 Cl  0  0  0  0  0
   45.5254   28.7894  317.2299 Cl  0  0  0  0  0
   40.9108   32.4267  319.2460 Cl  0  0  0  0  0
   43.0885   27.7985  321.0303 Cl  0  0  0  0  0
   46.1571   18.1657  323.3893 F   0  0  0  0  0
  2 28  1  0  0  0
  3  2  1  0  0  0
  3 25  1  0  0  0
  4  5  1  0  0  0
  4 11  1  0  0  0
  6  7  1  0  0  0
  8 29  1  0  0  0
  8  9  1  0  0  0
 10 30  1  0  0  0
 10  5  1  0  0  0
 11 12  1  0  0  0
 13 14  1  0  0  0
 15 31  1  0  0  0
 15 16  1  0  0  0
 17 32  1  0  0  0
 17 12  1  0  0  0
 18 28  1  0  0  0
 18 19  1  0  0  0
 20 21  1  0  0  0
 22 33  1  0  0  0
 22 23  1  0  0  0
 24 19  1  0  0  0
 25 26  1  0  0  0
 25 27  1  0  0  0
  2  1  2  0  0  0
  4 26  2  0  0  0
  5  6  2  0  0  0
  7  8  2  0  0  0
  9 10  2  0  0  0
 11 27  2  0  0  0
 12 13  2  0  0  0
 14 15  2  0  0  0
 16 17  2  0  0  0
 19 20  2  0  0  0
 21 22  2  0  0  0
 23 24  2  0  0  0
M  END
> <rmsd>
0.686438024

$$$$
CHEMBL406924_5TGZ


 28 31  0  0  0  0  0  0  0  0999 V2000
   42.8593   27.3341  321.3384 C   0  0  0  0  0
   43.4222   26.9947  319.9991 C   0  0  0  0  0
   44.1095   25.8467  319.6350 C   0  0  0  0  0
   44.4852   24.7194  320.5021 C   0  0  0  0  0
   45.6142   22.4283  320.6938 C   0  0  0  0  0
   46.6045   22.8164  321.7932 C   0  0  0  0  0
   47.0457   21.5774  322.5671 C   0  0  0  0  0
   45.8330   20.8673  323.1624 C   0  0  0  0  0
   44.8658   20.4606  322.0542 C   0  0  0  0  0
   44.4072   21.6907  321.2762 C   0  0  0  0  0
   44.1257   27.4446  316.4752 C   0  0  0  0  0
   44.7135   28.6931  316.2216 C   0  0  0  0  0
   44.9637   29.1059  314.9111 C   0  0  0  0  0
   44.6342   28.2707  313.8420 C   0  0  0  0  0
   44.0558   27.0225  314.0830 C   0  0  0  0  0
   43.8045   26.6013  315.3926 C   0  0  0  0  0
   43.3106   27.7203  318.8263 C   0  0  0  0  0
   42.3636   29.8655  319.6239 C   0  0  0  0  0
   41.6055   30.8969  319.1057 C   0  0  0  0  0
   41.3607   30.5824  317.7794 C   0  0  0  0  0
   41.9785   29.3713  317.5392 C   0  0  0  0  0
   44.1913   24.7343  321.7281 O   0  0  0  0  0
   45.1890   23.6041  319.9407 N   0  0  0  0  0
   44.3985   25.8945  318.3185 N   0  0  0  0  0
   43.9089   27.0252  317.8304 N   0  0  0  0  0
   42.5886   28.9541  318.6620 N   0  0  0  0  0
   44.9452   28.7879  312.1995 Cl  0  0  0  0  0
   43.0446   25.0367  315.6353 Cl  0  0  0  0  0
  1  2  1  0  0  0
  2  3  1  0  0  0
  3  4  1  0  0  0
  4 23  1  0  0  0
  5 23  1  0  0  0
  5  6  1  0  0  0
  6  7  1  0  0  0
  7  8  1  0  0  0
  8  9  1  0  0  0
  9 10  1  0  0  0
 10  5  1  0  0  0
 12 13  1  0  0  0
 14 27  1  0  0  0
 14 15  1  0  0  0
 16 28  1  0  0  0
 16 11  1  0  0  0
 17 26  1  0  0  0
 19 20  1  0  0  0
 21 26  1  0  0  0
 25 24  1  0  0  0
 25 11  1  0  0  0
 25 17  1  0  0  0
 26 18  1  0  0  0
  3 24  2  0  0  0
  4 22  2  0  0  0
 11 12  2  0  0  0
 13 14  2  0  0  0
 15 16  2  0  0  0
 17  2  2  0  0  0
 18 19  2  0  0  0
 20 21  2  0  0  0
M  END
> <rmsd>
0.360369831

$$$$
CHEMBL180144_5TGZ


 31 34  0  0  0  0  0  0  0  0999 V2000
   42.7837   27.4730  321.3171 C   0  0  0  0  0
   44.1601   26.0078  319.7942 C   0  0  0  0  0
   44.5080   24.9605  320.7712 C   0  0  0  0  0
   46.6886   22.0428  320.6061 C   0  0  0  0  0
   47.1944   20.9340  321.5379 C   0  0  0  0  0
   46.1591   20.5480  322.5976 C   0  0  0  0  0
   44.7471   20.5645  322.0152 C   0  0  0  0  0
   44.4256   21.8981  321.3181 C   0  0  0  0  0
   44.0200   27.0482  317.9297 C   0  0  0  0  0
   44.2275   27.4156  316.5088 C   0  0  0  0  0
   44.3493   28.7723  316.1693 C   0  0  0  0  0
   44.5700   29.1637  314.8478 C   0  0  0  0  0
   44.6759   28.2000  313.8455 C   0  0  0  0  0
   44.5566   26.8467  314.1643 C   0  0  0  0  0
   44.3370   26.4444  315.4858 C   0  0  0  0  0
   43.3469   27.7821  318.8962 C   0  0  0  0  0
   42.5634   29.0153  318.6881 C   0  0  0  0  0
   41.4725   28.9826  317.8091 C   0  0  0  0  0
   40.7071   30.1297  317.5880 C   0  0  0  0  0
   41.0289   31.3198  318.2433 C   0  0  0  0  0
   42.1205   31.3653  319.1135 C   0  0  0  0  0
   42.8906   30.2207  319.3420 C   0  0  0  0  0
   43.4344   27.1167  320.0631 N   0  0  0  0  0
   45.2584   23.8212  320.3429 N   0  0  0  0  0
   45.5929   22.7844  321.2260 N   0  0  0  0  0
   44.5387   25.9398  318.4996 N   0  0  0  0  0
   44.1558   25.0632  321.9768 O   0  0  0  0  0
   44.9515   28.6878  312.1877 Cl  0  0  0  0  0
   44.1484   24.7221  315.7863 Cl  0  0  0  0  0
   40.0713   32.7578  317.9657 Cl  0  0  0  0  0
   44.2880   30.3549  320.3997 Cl  0  0  0  0  0
  1 23  1  0  0  0
  2  3  1  0  0  0
  3 24  1  0  0  0
  4 25  1  0  0  0
  4  5  1  0  0  0
  5  6  1  0  0  0
  6  7  1  0  0  0
  7  8  1  0  0  0
  8 25  1  0  0  0
  9 26  1  0  0  0
  9 10  1  0  0  0
 11 12  1  0  0  0
 13 28  1  0  0  0
 13 14  1  0  0  0
 15 29  1  0  0  0
 15 10  1  0  0  0
 16 17  1  0  0  0
 16 23  1  0  0  0
 18 19  1  0  0  0
 20 30  1  0  0  0
 20 21  1  0  0  0
 22 31  1  0  0  0
 22 17  1  0  0  0
 23  2  1  0  0  0
 24 25  1  0  0  0
  2 26  2  0  0  0
  3 27  2  0  0  0
  9 16  2  0  0  0
 10 11  2  0  0  0
 12 13  2  0  0  0
 14 15  2  0  0  0
 17 18  2  0  0  0
 19 20  2  0  0  0
 21 22  2  0  0  0
M  END
> <rmsd>
0.18031925

$$$$
CHEMBL1909858_5TGZ


 30 33  0  0  0  0  0  0  0  0999 V2000
   42.7243   27.5755  321.4027 C   0  0  0  0  0
   43.3880   27.1955  320.1227 C   0  0  0  0  0
   44.1303   26.0586  319.8450 C   0  0  0  0  0
   44.4895   24.9797  320.7777 C   0  0  0  0  0
   45.6220   22.7473  321.1589 C   0  0  0  0  0
   44.3910   21.8698  321.4405 C   0  0  0  0  0
   44.7340   20.3970  321.7025 C   0  0  0  0  0
   46.1171   20.2536  322.3306 C   0  0  0  0  0
   47.2107   20.7960  321.3999 C   0  0  0  0  0
   46.7350   21.9415  320.4955 C   0  0  0  0  0
   44.2102   27.4950  316.5997 C   0  0  0  0  0
   44.0587   28.8117  316.1410 C   0  0  0  0  0
   44.2941   29.1281  314.8016 C   0  0  0  0  0
   44.6912   28.1346  313.9031 C   0  0  0  0  0
   44.8584   26.8146  314.3538 C   0  0  0  0  0
   44.6210   26.5046  315.6961 C   0  0  0  0  0
   43.3204   27.8639  318.9196 C   0  0  0  0  0
   41.4272   29.1216  317.9162 C   0  0  0  0  0
   40.9143   30.4045  317.9397 C   0  0  0  0  0
   41.7618   31.1418  318.7574 C   0  0  0  0  0
   42.7372   30.2626  319.1881 C   0  0  0  0  0
   44.1323   25.0363  321.9854 O   0  0  0  0  0
   45.2530   23.8665  320.3056 N   0  0  0  0  0
   44.4828   26.0601  318.5419 N   0  0  0  0  0
   43.9902   27.1564  317.9808 N   0  0  0  0  0
   42.5383   29.0393  318.6689 N   0  0  0  0  0
   44.9750   28.5770  312.2278 Cl  0  0  0  0  0
   45.3641   25.5299  313.2692 Cl  0  0  0  0  0
   40.6993   27.7755  317.0553 Cl  0  0  0  0  0
   44.0747   30.6978  320.2385 Cl  0  0  0  0  0
  1  2  1  0  0  0
  2  3  1  0  0  0
  3  4  1  0  0  0
  4 23  1  0  0  0
  5 23  1  0  0  0
  5  6  1  0  0  0
  6  7  1  0  0  0
  7  8  1  0  0  0
  8  9  1  0  0  0
  9 10  1  0  0  0
 10  5  1  0  0  0
 12 13  1  0  0  0
 14 27  1  0  0  0
 14 15  1  0  0  0
 15 28  1  0  0  0
 16 11  1  0  0  0
 17 26  1  0  0  0
 18 29  1  0  0  0
 19 20  1  0  0  0
 21 30  1  0  0  0
 21 26  1  0  0  0
 25 24  1  0  0  0
 25 11  1  0  0  0
 25 17  1  0  0  0
 26 18  1  0  0  0
  3 24  2  0  0  0
  4 22  2  0  0  0
 11 12  2  0  0  0
 13 14  2  0  0  0
 15 16  2  0  0  0
 17  2  2  0  0  0
 18 19  2  0  0  0
 20 21  2  0  0  0
M  END
> <rmsd>
0.255896777

$$$$
CHEMBL1631162_5TGZ


 27 29  0  0  0  0  0  0  0  0999 V2000
   43.7577   19.7805  322.4023 C   0  0  0  0  0
   45.1173   20.3608  322.7435 C   0  0  0  0  0
   45.9904   20.4368  321.4999 C   0  0  0  0  0
   45.5491   21.5654  320.5805 C   0  0  0  0  0
   45.9537   22.9081  321.1590 C   0  0  0  0  0
   44.5821   24.9791  320.7332 C   0  0  0  0  0
   44.1447   26.0283  319.7993 C   0  0  0  0  0
   44.1915   27.5033  316.5845 C   0  0  0  0  0
   45.4803   27.8313  316.1448 C   0  0  0  0  0
   45.7069   28.1660  314.8076 C   0  0  0  0  0
   44.6467   28.1664  313.8987 C   0  0  0  0  0
   43.3622   27.8179  314.3229 C   0  0  0  0  0
   43.1276   27.4820  315.6596 C   0  0  0  0  0
   43.2144   27.7843  318.8723 C   0  0  0  0  0
   41.4806   29.4791  319.3866 C   0  0  0  0  0
   41.0813   30.7068  318.8967 C   0  0  0  0  0
   41.9150   30.9990  317.8305 C   0  0  0  0  0
   42.7907   29.9386  317.7113 C   0  0  0  0  0
   43.2820   27.0823  320.0633 C   0  0  0  0  0
   42.6352   27.4249  321.3635 C   0  0  0  0  0
   45.4904   23.9717  320.2844 N   0  0  0  0  0
   44.5599   26.0969  318.5176 N   0  0  0  0  0
   43.9905   27.1544  317.9593 N   0  0  0  0  0
   42.5127   29.0232  318.6558 N   0  0  0  0  0
   44.1581   24.9648  321.9206 O   0  0  0  0  0
   44.9303   28.5875  312.2241 Cl  0  0  0  0  0
   41.5062   26.9962  316.1293 Cl  0  0  0  0  0
  1  2  1  0  0  0
  2  3  1  0  0  0
  3  4  1  0  0  0
  4  5  1  0  0  0
  5 21  1  0  0  0
  6  7  1  0  0  0
  9 10  1  0  0  0
 11 26  1  0  0  0
 11 12  1  0  0  0
 13 27  1  0  0  0
 13  8  1  0  0  0
 14 24  1  0  0  0
 16 17  1  0  0  0
 18 24  1  0  0  0
 19  7  1  0  0  0
 20 19  1  0  0  0
 21  6  1  0  0  0
 23 22  1  0  0  0
 23  8  1  0  0  0
 23 14  1  0  0  0
 24 15  1  0  0  0
  6 25  2  0  0  0
  7 22  2  0  0  0
  8  9  2  0  0  0
 10 11  2  0  0  0
 12 13  2  0  0  0
 14 19  2  0  0  0
 15 16  2  0  0  0
 17 18  2  0  0  0
M  END
> <rmsd>
0.334378392

$$$$
CHEMBL1631289_5TGZ


 28 30  0  0  0  0  0  0  0  0999 V2000
   42.8170   27.5357  321.2639 C   0  0  0  0  0
   43.4846   27.2620  319.9580 C   0  0  0  0  0
   44.3355   26.2113  319.6467 C   0  0  0  0  0
   44.8098   25.1510  320.5495 C   0  0  0  0  0
   46.1674   23.0384  320.8692 C   0  0  0  0  0
   45.0461   22.0339  321.1176 C   0  0  0  0  0
   45.4757   20.8704  322.0100 C   0  0  0  0  0
   45.9076   21.3709  323.3770 C   0  0  0  0  0
   44.2942   19.9409  322.1892 C   0  0  0  0  0
   46.6110   20.0907  321.3709 C   0  0  0  0  0
   44.2570   27.7276  316.4518 C   0  0  0  0  0
   43.8462   26.8553  315.4357 C   0  0  0  0  0
   44.0158   27.2040  314.0937 C   0  0  0  0  0
   44.6058   28.4246  313.7586 C   0  0  0  0  0
   45.0398   29.2907  314.7649 C   0  0  0  0  0
   44.8734   28.9488  316.1104 C   0  0  0  0  0
   43.3359   27.9543  318.7687 C   0  0  0  0  0
   42.0099   29.9187  319.4939 C   0  0  0  0  0
   41.1925   30.8658  318.9099 C   0  0  0  0  0
   41.1587   30.5804  317.5555 C   0  0  0  0  0
   41.9564   29.4698  317.3656 C   0  0  0  0  0
   44.4559   25.1384  321.7596 O   0  0  0  0  0
   45.6807   24.1345  320.0456 N   0  0  0  0  0
   44.6795   26.2815  318.3440 N   0  0  0  0  0
   44.0797   27.3394  317.8192 N   0  0  0  0  0
   42.4700   29.0833  318.5464 N   0  0  0  0  0
   44.8164   28.8622  312.0775 Cl  0  0  0  0  0
   45.4880   30.0466  317.3361 Cl  0  0  0  0  0
  1  2  1  0  0  0
  2  3  1  0  0  0
  3  4  1  0  0  0
  4 23  1  0  0  0
  5 23  1  0  0  0
  5  6  1  0  0  0
  6  7  1  0  0  0
  7  8  1  0  0  0
  7  9  1  0  0  0
  7 10  1  0  0  0
 12 13  1  0  0  0
 14 27  1  0  0  0
 14 15  1  0  0  0
 16 28  1  0  0  0
 16 11  1  0  0  0
 17 26  1  0  0  0
 19 20  1  0  0  0
 21 26  1  0  0  0
 25 24  1  0  0  0
 25 11  1  0  0  0
 25 17  1  0  0  0
 26 18  1  0  0  0
  3 24  2  0  0  0
  4 22  2  0  0  0
 11 12  2  0  0  0
 13 14  2  0  0  0
 15 16  2  0  0  0
 17  2  2  0  0  0
 18 19  2  0  0  0
 20 21  2  0  0  0
M  END
> <rmsd>
0.541121125

$$$$
CHEMBL568230_5TGZ


 29 32  0  0  0  0  0  0  0  0999 V2000
   42.7958   27.4208  321.3473 C   0  0  0  0  0
   43.3742   27.0594  320.0197 C   0  0  0  0  0
   44.0635   25.9042  319.6899 C   0  0  0  0  0
   44.4273   24.7955  320.5852 C   0  0  0  0  0
   44.6313   23.6023  322.3464 C   0  0  0  0  0
   45.2167   22.9620  321.2726 C   0  0  0  0  0
   45.8996   21.6329  321.3006 C   0  0  0  0  0
   44.9343   20.5427  321.7256 C   0  0  0  0  0
   47.0925   21.6620  322.2369 C   0  0  0  0  0
   44.1225   27.4336  316.4996 C   0  0  0  0  0
   44.6945   28.6852  316.2249 C   0  0  0  0  0
   44.9594   29.0707  314.9091 C   0  0  0  0  0
   44.6601   28.2054  313.8555 C   0  0  0  0  0
   44.0964   26.9547  314.1171 C   0  0  0  0  0
   43.8304   26.5606  315.4321 C   0  0  0  0  0
   43.2716   27.7671  318.8322 C   0  0  0  0  0
   42.5445   29.0428  318.6346 C   0  0  0  0  0
   41.8486   29.2893  317.4419 C   0  0  0  0  0
   41.1517   30.4870  317.2618 C   0  0  0  0  0
   41.1405   31.4472  318.2764 C   0  0  0  0  0
   41.8224   31.2078  319.4720 C   0  0  0  0  0
   42.5194   30.0095  319.6507 C   0  0  0  0  0
   44.1307   24.7694  321.9012 N   0  0  0  0  0
   45.0939   23.7044  320.1600 N   0  0  0  0  0
   44.3682   25.9242  318.3781 N   0  0  0  0  0
   43.8854   27.0450  317.8618 N   0  0  0  0  0
   44.9896   28.6885  312.2061 Cl  0  0  0  0  0
   43.0861   24.9922  315.6983 Cl  0  0  0  0  0
   40.2686   32.9478  318.0515 Cl  0  0  0  0  0
  1  2  1  0  0  0
  2  3  1  0  0  0
  3  4  1  0  0  0
  5 23  1  0  0  0
  6 24  1  0  0  0
  7  6  1  0  0  0
  7  8  1  0  0  0
  7  9  1  0  0  0
 11 12  1  0  0  0
 13 27  1  0  0  0
 13 14  1  0  0  0
 15 28  1  0  0  0
 15 10  1  0  0  0
 16 17  1  0  0  0
 18 19  1  0  0  0
 20 29  1  0  0  0
 20 21  1  0  0  0
 22 17  1  0  0  0
 24  4  1  0  0  0
 26 25  1  0  0  0
 26 10  1  0  0  0
 26 16  1  0  0  0
  3 25  2  0  0  0
  4 23  2  0  0  0
  5  6  2  0  0  0
 10 11  2  0  0  0
 12 13  2  0  0  0
 14 15  2  0  0  0
 16  2  2  0  0  0
 17 18  2  0  0  0
 19 20  2  0  0  0
 21 22  2  0  0  0
M  END
> <rmsd>
0.219390482

$$$$
CHEMBL574270_5TGZ


 32 35  0  0  0  0  0  0  0  0999 V2000
   44.3669   26.8792  317.4674 N   0  0  0  0  0
   45.0097   25.7735  317.8185 N   0  0  0  0  0
   42.8142   28.4842  318.5398 N   0  0  0  0  0
   45.0283   24.2050  321.2475 N   0  0  0  0  0
   44.7748   25.5458  319.1285 C   0  0  0  0  0
   43.9546   26.5456  319.6289 C   0  0  0  0  0
   43.7172   27.3681  318.5490 C   0  0  0  0  0
   42.9403   29.6289  319.2346 C   0  0  0  0  0
   41.8621   30.4634  319.0089 C   0  0  0  0  0
   41.0243   29.7800  318.1357 C   0  0  0  0  0
   41.6458   28.5728  317.8780 C   0  0  0  0  0
   41.0777   27.5012  317.0108 C   0  0  0  0  0
   44.1006   29.9683  320.1068 C   0  0  0  0  0
   43.3773   26.6731  320.9979 C   0  0  0  0  0
   45.3236   24.3909  319.8568 C   0  0  0  0  0
   45.5737   23.1501  322.1002 C   0  0  0  0  0
   47.0134   23.3894  322.4402 C   0  0  0  0  0
   48.0278   23.2557  321.4801 C   0  0  0  0  0
   49.3610   23.4931  321.8267 C   0  0  0  0  0
   49.6871   23.8661  323.1336 C   0  0  0  0  0
   48.6801   24.0019  324.0935 C   0  0  0  0  0
   47.3465   23.7645  323.7467 C   0  0  0  0  0
   45.3249   21.7630  321.5261 C   0  0  0  0  0
   44.4381   27.4391  316.1436 C   0  0  0  0  0
   44.1175   28.7836  315.9059 C   0  0  0  0  0
   44.2055   29.3252  314.6212 C   0  0  0  0  0
   44.6304   28.5183  313.5529 C   0  0  0  0  0
   44.9650   27.1815  313.7855 C   0  0  0  0  0
   44.8724   26.6459  315.0723 C   0  0  0  0  0
   46.0498   23.5635  319.2433 O   0  0  0  0  0
   44.7590   29.1489  311.9194 Cl  0  0  0  0  0
   43.7771   31.0117  314.3887 Cl  0  0  0  0  0
  1  2  1  0  0  0
  1 24  1  0  0  0
  3  8  1  0  0  0
  5  6  1  0  0  0
  5 15  1  0  0  0
  7  3  1  0  0  0
  7  1  1  0  0  0
  9 10  1  0  0  0
 11  3  1  0  0  0
 12 11  1  0  0  0
 13  8  1  0  0  0
 14  6  1  0  0  0
 15  4  1  0  0  0
 16  4  1  0  0  0
 16 17  1  0  0  0
 16 23  1  0  0  0
 18 19  1  0  0  0
 20 21  1  0  0  0
 22 17  1  0  0  0
 25 26  1  0  0  0
 26 32  1  0  0  0
 27 28  1  0  0  0
 27 31  1  0  0  0
 29 24  1  0  0  0
  5  2  2  0  0  0
  6  7  2  0  0  0
  8  9  2  0  0  0
 10 11  2  0  0  0
 15 30  2  0  0  0
 17 18  2  0  0  0
 19 20  2  0  0  0
 21 22  2  0  0  0
 24 25  2  0  0  0
 26 27  2  0  0  0
 28 29  2  0  0  0
M  END
> <rmsd>
0.734163344

$$$$
CHEMBL511907_5TGZ


 33 36  0  0  0  0  0  0  0  0999 V2000
   41.8766   26.2813  321.9328 C   0  0  0  0  0
   42.6623   27.4789  321.4289 C   0  0  0  0  0
   41.6706   28.6221  321.3271 C   0  0  0  0  0
   43.7052   27.8673  322.4594 C   0  0  0  0  0
   43.3463   27.1401  320.1071 C   0  0  0  0  0
   44.1544   26.0261  319.8293 C   0  0  0  0  0
   44.6273   24.9731  320.7487 C   0  0  0  0  0
   46.7124   22.0189  320.2450 C   0  0  0  0  0
   47.0866   20.6777  320.9005 C   0  0  0  0  0
   46.4920   20.5382  322.3007 C   0  0  0  0  0
   44.9824   20.7931  322.2840 C   0  0  0  0  0
   44.5930   21.9177  321.3165 C   0  0  0  0  0
   44.1755   27.4210  316.5709 C   0  0  0  0  0
   44.5436   28.7310  316.2256 C   0  0  0  0  0
   44.7861   29.0756  314.8947 C   0  0  0  0  0
   44.6671   28.1117  313.8929 C   0  0  0  0  0
   44.3030   26.8045  314.2215 C   0  0  0  0  0
   44.0603   26.4506  315.5525 C   0  0  0  0  0
   43.2681   27.7981  318.8723 C   0  0  0  0  0
   42.5799   29.0647  318.5712 C   0  0  0  0  0
   43.0432   30.2672  319.1214 C   0  0  0  0  0
   42.4151   31.4735  318.7992 C   0  0  0  0  0
   41.3286   31.4825  317.9196 C   0  0  0  0  0
   40.8731   30.2864  317.3573 C   0  0  0  0  0
   41.5004   29.0796  317.6791 C   0  0  0  0  0
   44.4867   25.0840  321.9950 O   0  0  0  0  0
   45.2847   23.8226  320.2110 N   0  0  0  0  0
   45.7398   22.7819  321.0334 N   0  0  0  0  0
   44.4933   26.0225  318.5264 N   0  0  0  0  0
   43.9540   27.0826  317.9517 N   0  0  0  0  0
   44.9690   28.5423  312.2238 Cl  0  0  0  0  0
   43.5585   24.8013  315.8905 Cl  0  0  0  0  0
   40.5427   32.9931  317.5163 Cl  0  0  0  0  0
  1  2  1  0  0  0
  2  3  1  0  0  0
  2  4  1  0  0  0
  2  5  1  0  0  0
  5  6  1  0  0  0
  6  7  1  0  0  0
  7 27  1  0  0  0
  8 28  1  0  0  0
  8  9  1  0  0  0
  9 10  1  0  0  0
 10 11  1  0  0  0
 11 12  1  0  0  0
 12 28  1  0  0  0
 14 15  1  0  0  0
 16 31  1  0  0  0
 16 17  1  0  0  0
 18 32  1  0  0  0
 18 13  1  0  0  0
 19 20  1  0  0  0
 21 22  1  0  0  0
 23 33  1  0  0  0
 23 24  1  0  0  0
 25 20  1  0  0  0
 27 28  1  0  0  0
 30 29  1  0  0  0
 30 13  1  0  0  0
 30 19  1  0  0  0
  6 29  2  0  0  0
  7 26  2  0  0  0
 13 14  2  0  0  0
 15 16  2  0  0  0
 17 18  2  0  0  0
 19  5  2  0  0  0
 20 21  2  0  0  0
 22 23  2  0  0  0
 24 25  2  0  0  0
M  END
> <rmsd>
0.395400852

$$$$
CHEMBL479940_5TGZ


 31 34  0  0  0  0  0  0  0  0999 V2000
   42.5617   27.6310  321.4009 C   0  0  0  0  0
   43.2184   27.2642  320.1126 C   0  0  0  0  0
   43.9180   26.1052  319.8427 C   0  0  0  0  0
   46.8876   22.4431  321.2240 C   0  0  0  0  0
   47.2585   21.4048  322.2906 C   0  0  0  0  0
   46.1111   20.4329  322.5794 C   0  0  0  0  0
   45.3571   20.0799  321.2986 C   0  0  0  0  0
   44.8999   21.3344  320.5336 C   0  0  0  0  0
   44.1519   27.5479  316.6302 C   0  0  0  0  0
   43.6489   26.7235  315.6155 C   0  0  0  0  0
   43.9032   27.0186  314.2741 C   0  0  0  0  0
   44.6695   28.1366  313.9384 C   0  0  0  0  0
   45.1949   28.9515  314.9438 C   0  0  0  0  0
   44.9448   28.6628  316.2888 C   0  0  0  0  0
   43.1960   27.9557  318.9108 C   0  0  0  0  0
   42.4936   29.2358  318.6458 C   0  0  0  0  0
   41.9898   29.5251  317.3688 C   0  0  0  0  0
   41.3270   30.7302  317.1221 C   0  0  0  0  0
   41.1584   31.6573  318.1531 C   0  0  0  0  0
   41.6498   31.3776  319.4304 C   0  0  0  0  0
   42.3129   30.1719  319.6749 C   0  0  0  0  0
   44.2511   24.8045  320.9707 S   0  0  0  0  0
   42.9556   24.2054  321.4416 O   0  0  0  0  0
   45.0196   25.3440  322.1444 O   0  0  0  0  0
   45.1934   23.5896  320.1744 N   0  0  0  0  0
   45.4365   22.5728  321.1073 N   0  0  0  0  0
   44.3075   26.0956  318.5550 N   0  0  0  0  0
   43.8776   27.2178  317.9977 N   0  0  0  0  0
   44.9860   28.5077  312.2578 Cl  0  0  0  0  0
   45.6790   29.6846  317.5143 Cl  0  0  0  0  0
   40.3293   33.1673  317.8453 Cl  0  0  0  0  0
  1  2  1  0  0  0
  2  3  1  0  0  0
  4 26  1  0  0  0
  4  5  1  0  0  0
  5  6  1  0  0  0
  6  7  1  0  0  0
  7  8  1  0  0  0
  8 26  1  0  0  0
 10 11  1  0  0  0
 12 29  1  0  0  0
 12 13  1  0  0  0
 14 30  1  0  0  0
 14  9  1  0  0  0
 15 16  1  0  0  0
 17 18  1  0  0  0
 19 31  1  0  0  0
 19 20  1  0  0  0
 21 16  1  0  0  0
 22  3  1  0  0  0
 22 25  1  0  0  0
 25 26  1  0  0  0
 28 27  1  0  0  0
 28  9  1  0  0  0
 28 15  1  0  0  0
  3 27  2  0  0  0
  9 10  2  0  0  0
 11 12  2  0  0  0
 13 14  2  0  0  0
 15  2  2  0  0  0
 16 17  2  0  0  0
 18 19  2  0  0  0
 20 21  2  0  0  0
 22 23  2  0  0  0
 22 24  2  0  0  0
M  END
> <rmsd>
0.34261167

$$$$
CHEMBL579249_5TGZ


 31 34  0  0  0  0  0  0  0  0999 V2000
   43.9029   27.1402  317.9245 N   0  0  0  0  0
   44.3326   26.0006  318.4499 N   0  0  0  0  0
   42.5723   29.0892  318.6787 N   0  0  0  0  0
   44.9819   23.7145  320.1436 N   0  0  0  0  0
   43.9856   25.9803  319.7543 C   0  0  0  0  0
   43.3132   27.1502  320.0704 C   0  0  0  0  0
   43.2791   27.8571  318.8879 C   0  0  0  0  0
   41.4767   29.2735  317.9193 C   0  0  0  0  0
   41.0456   30.5848  317.9869 C   0  0  0  0  0
   41.9285   31.2347  318.8409 C   0  0  0  0  0
   42.8404   30.2787  319.2465 C   0  0  0  0  0
   43.9849   30.5417  320.1647 C   0  0  0  0  0
   40.7956   28.2021  317.1374 C   0  0  0  0  0
   42.6837   27.5324  321.3669 C   0  0  0  0  0
   44.2871   24.8559  320.6529 C   0  0  0  0  0
   45.3391   22.5764  320.9765 C   0  0  0  0  0
   45.7487   21.4178  320.0789 C   0  0  0  0  0
   45.4204   20.0469  320.6781 C   0  0  0  0  0
   45.6715   19.9053  322.1826 C   0  0  0  0  0
   46.9575   20.5781  322.6410 C   0  0  0  0  0
   46.6608   22.0119  323.0630 C   0  0  0  0  0
   46.5208   22.9493  321.8677 C   0  0  0  0  0
   44.1438   27.5104  316.5549 C   0  0  0  0  0
   44.0641   28.8476  316.1397 C   0  0  0  0  0
   44.3163   29.2024  314.8123 C   0  0  0  0  0
   44.6650   28.2105  313.8807 C   0  0  0  0  0
   44.7602   26.8780  314.2910 C   0  0  0  0  0
   44.5042   26.5302  315.6196 C   0  0  0  0  0
   43.9348   24.8949  321.8629 O   0  0  0  0  0
   44.9925   28.6020  312.2008 Cl  0  0  0  0  0
   44.1865   30.8920  314.3543 Cl  0  0  0  0  0
  1  2  1  0  0  0
  1 23  1  0  0  0
  3  8  1  0  0  0
  5  6  1  0  0  0
  5 15  1  0  0  0
  7  3  1  0  0  0
  7  1  1  0  0  0
  9 10  1  0  0  0
 11  3  1  0  0  0
 12 11  1  0  0  0
 13  8  1  0  0  0
 14  6  1  0  0  0
 15  4  1  0  0  0
 16  4  1  0  0  0
 16 17  1  0  0  0
 17 18  1  0  0  0
 18 19  1  0  0  0
 19 20  1  0  0  0
 20 21  1  0  0  0
 21 22  1  0  0  0
 22 16  1  0  0  0
 24 25  1  0  0  0
 25 31  1  0  0  0
 26 27  1  0  0  0
 26 30  1  0  0  0
 28 23  1  0  0  0
  5  2  2  0  0  0
  6  7  2  0  0  0
  8  9  2  0  0  0
 10 11  2  0  0  0
 15 29  2  0  0  0
 23 24  2  0  0  0
 25 26  2  0  0  0
 27 28  2  0  0  0
M  END
> <rmsd>
0.266998082

$$$$
CHEMBL576140_5TGZ


 31 34  0  0  0  0  0  0  0  0999 V2000
   43.9010   27.0518  317.9156 N   0  0  0  0  0
   44.3726   25.9404  318.4632 N   0  0  0  0  0
   42.5800   29.0149  318.6344 N   0  0  0  0  0
   45.0951   23.7112  320.1920 N   0  0  0  0  0
   44.0411   25.9445  319.7720 C   0  0  0  0  0
   43.3459   27.1074  320.0683 C   0  0  0  0  0
   43.2815   27.7831  318.8681 C   0  0  0  0  0
   42.7989   30.1970  319.2392 C   0  0  0  0  0
   41.9280   31.1609  318.7677 C   0  0  0  0  0
   41.1249   30.5258  317.8288 C   0  0  0  0  0
   41.5608   29.2155  317.7782 C   0  0  0  0  0
   40.9449   28.1586  316.9255 C   0  0  0  0  0
   43.8699   30.4526  320.2443 C   0  0  0  0  0
   42.7247   27.5061  321.3640 C   0  0  0  0  0
   44.3813   24.8499  320.6935 C   0  0  0  0  0
   45.5065   22.5571  320.9372 C   0  0  0  0  0
   46.1993   21.5389  320.2724 C   0  0  0  0  0
   46.6166   20.3982  320.9646 C   0  0  0  0  0
   46.3424   20.2692  322.3287 C   0  0  0  0  0
   45.6512   21.2806  323.0006 C   0  0  0  0  0
   45.2345   22.4207  322.3074 C   0  0  0  0  0
   44.1358   27.4275  316.5473 C   0  0  0  0  0
   44.0545   26.4842  315.4994 C   0  0  0  0  0
   44.3047   26.8827  314.1824 C   0  0  0  0  0
   44.6415   28.2068  313.8958 C   0  0  0  0  0
   44.7235   29.1442  314.9257 C   0  0  0  0  0
   44.4732   28.7559  316.2430 C   0  0  0  0  0
   44.0470   24.9191  321.9067 O   0  0  0  0  0
   46.8647   18.8413  323.1953 Cl  0  0  0  0  0
   44.9533   28.6923  312.2437 Cl  0  0  0  0  0
   43.5801   24.8155  315.7765 Cl  0  0  0  0  0
  1  2  1  0  0  0
  1 22  1  0  0  0
  3  8  1  0  0  0
  4 16  1  0  0  0
  5  6  1  0  0  0
  5 15  1  0  0  0
  7  3  1  0  0  0
  7  1  1  0  0  0
  9 10  1  0  0  0
 11  3  1  0  0  0
 12 11  1  0  0  0
 13  8  1  0  0  0
 14  6  1  0  0  0
 15  4  1  0  0  0
 17 18  1  0  0  0
 19 20  1  0  0  0
 19 29  1  0  0  0
 21 16  1  0  0  0
 23 24  1  0  0  0
 23 31  1  0  0  0
 25 26  1  0  0  0
 25 30  1  0  0  0
 27 22  1  0  0  0
  5  2  2  0  0  0
  6  7  2  0  0  0
  8  9  2  0  0  0
 10 11  2  0  0  0
 15 28  2  0  0  0
 16 17  2  0  0  0
 18 19  2  0  0  0
 20 21  2  0  0  0
 22 23  2  0  0  0
 24 25  2  0  0  0
 26 27  2  0  0  0
M  END
> <rmsd>
0.239150047

$$$$
CHEMBL2030929_5TGZ


 35 38  0  0  0  0  0  0  0  0999 V2000
   43.9006   17.5676  325.9432 C   0  0  0  0  0
   43.3568   18.8984  325.4688 C   0  0  0  0  0
   43.7669   20.5074  323.6505 C   0  0  0  0  0
   45.4911   19.9593  321.9156 C   0  0  0  0  0
   46.7404   20.7306  321.5000 C   0  0  0  0  0
   46.3601   21.8918  320.5858 C   0  0  0  0  0
   45.3949   22.8304  321.3043 C   0  0  0  0  0
   44.3209   25.0846  320.8644 C   0  0  0  0  0
   43.9707   26.1353  319.8965 C   0  0  0  0  0
   44.0930   27.4707  316.6214 C   0  0  0  0  0
   44.6547   28.7119  316.2847 C   0  0  0  0  0
   44.9493   29.0202  314.9550 C   0  0  0  0  0
   44.6907   28.0873  313.9493 C   0  0  0  0  0
   44.1379   26.8462  314.2729 C   0  0  0  0  0
   43.8424   26.5292  315.6025 C   0  0  0  0  0
   43.1837   27.9359  318.9092 C   0  0  0  0  0
   42.4509   29.1903  318.6182 C   0  0  0  0  0
   41.7788   29.3564  317.3982 C   0  0  0  0  0
   41.0763   30.5343  317.1301 C   0  0  0  0  0
   41.0355   31.5546  318.0834 C   0  0  0  0  0
   41.6934   31.3955  319.3054 C   0  0  0  0  0
   42.3962   30.2171  319.5720 C   0  0  0  0  0
   43.2641   27.3021  320.1394 C   0  0  0  0  0
   42.6512   27.7378  321.4288 C   0  0  0  0  0
   44.1364   22.0649  321.7141 C   0  0  0  0  0
   44.0605   19.3096  324.3067 O   0  0  0  0  0
   42.8573   21.2651  324.0886 O   0  0  0  0  0
   43.9912   25.1980  322.0760 O   0  0  0  0  0
   44.5061   20.8775  322.4810 N   0  0  0  0  0
   45.0448   23.9332  320.4213 N   0  0  0  0  0
   44.3055   26.0796  318.5930 N   0  0  0  0  0
   43.8258   27.1625  317.9986 N   0  0  0  0  0
   45.0573   28.4735  312.2824 Cl  0  0  0  0  0
   43.1143   24.9680  315.9450 Cl  0  0  0  0  0
   40.1565   33.0304  317.7483 Cl  0  0  0  0  0
  1  2  1  0  0  0
  2 26  1  0  0  0
  3 26  1  0  0  0
  3 29  1  0  0  0
  4 29  1  0  0  0
  4  5  1  0  0  0
  5  6  1  0  0  0
  6  7  1  0  0  0
  7 30  1  0  0  0
  7 25  1  0  0  0
  8  9  1  0  0  0
 11 12  1  0  0  0
 13 33  1  0  0  0
 13 14  1  0  0  0
 15 34  1  0  0  0
 15 10  1  0  0  0
 16 17  1  0  0  0
 18 19  1  0  0  0
 20 35  1  0  0  0
 20 21  1  0  0  0
 22 17  1  0  0  0
 23  9  1  0  0  0
 24 23  1  0  0  0
 25 29  1  0  0  0
 30  8  1  0  0  0
 32 31  1  0  0  0
 32 10  1  0  0  0
 32 16  1  0  0  0
  3 27  2  0  0  0
  8 28  2  0  0  0
  9 31  2  0  0  0
 10 11  2  0  0  0
 12 13  2  0  0  0
 14 15  2  0  0  0
 16 23  2  0  0  0
 17 18  2  0  0  0
 19 20  2  0  0  0
 21 22  2  0  0  0
M  END
> <rmsd>
0.388056695

$$$$
CHEMBL368441_5TGZ


 30 33  0  0  0  0  0  0  0  0999 V2000
   42.6444   27.3979  321.3068 C   0  0  0  0  0
   44.0866   25.9896  319.7890 C   0  0  0  0  0
   44.4284   24.9269  320.7519 C   0  0  0  0  0
   45.6524   22.7610  321.2244 C   0  0  0  0  0
   46.8432   22.0107  320.6336 C   0  0  0  0  0
   47.2272   20.8394  321.5338 C   0  0  0  0  0
   46.0419   19.8921  321.6995 C   0  0  0  0  0
   44.8485   20.6398  322.2882 C   0  0  0  0  0
   44.4655   21.8107  321.3874 C   0  0  0  0  0
   44.0346   27.1074  317.9635 C   0  0  0  0  0
   44.2619   27.4748  316.5486 C   0  0  0  0  0
   45.2536   26.8100  315.8125 C   0  0  0  0  0
   45.4767   27.1311  314.4705 C   0  0  0  0  0
   44.7057   28.1180  313.8514 C   0  0  0  0  0
   43.7092   28.7800  314.5724 C   0  0  0  0  0
   43.4874   28.4572  315.9137 C   0  0  0  0  0
   43.2603   27.7685  318.9099 C   0  0  0  0  0
   42.5478   29.0508  318.7562 C   0  0  0  0  0
   41.1486   29.0557  318.8157 C   0  0  0  0  0
   40.4392   30.2506  318.6750 C   0  0  0  0  0
   41.1254   31.4506  318.4788 C   0  0  0  0  0
   42.5214   31.4583  318.4335 C   0  0  0  0  0
   43.2391   30.2665  318.5736 C   0  0  0  0  0
   43.2930   27.0528  320.0488 N   0  0  0  0  0
   45.2906   23.8613  320.3438 N   0  0  0  0  0
   44.5548   25.9929  318.5221 N   0  0  0  0  0
   43.9701   24.9533  321.9258 O   0  0  0  0  0
   44.9851   28.5217  312.1717 Cl  0  0  0  0  0
   40.2367   32.9475  318.3008 Cl  0  0  0  0  0
   44.9952   30.3419  318.5495 Cl  0  0  0  0  0
  1 24  1  0  0  0
  2  3  1  0  0  0
  3 25  1  0  0  0
  4 25  1  0  0  0
  4  5  1  0  0  0
  5  6  1  0  0  0
  6  7  1  0  0  0
  7  8  1  0  0  0
  8  9  1  0  0  0
  9  4  1  0  0  0
 10 26  1  0  0  0
 10 11  1  0  0  0
 12 13  1  0  0  0
 14 28  1  0  0  0
 14 15  1  0  0  0
 16 11  1  0  0  0
 17 18  1  0  0  0
 17 24  1  0  0  0
 19 20  1  0  0  0
 21 29  1  0  0  0
 21 22  1  0  0  0
 23 30  1  0  0  0
 23 18  1  0  0  0
 24  2  1  0  0  0
  2 26  2  0  0  0
  3 27  2  0  0  0
 10 17  2  0  0  0
 11 12  2  0  0  0
 13 14  2  0  0  0
 15 16  2  0  0  0
 18 19  2  0  0  0
 20 21  2  0  0  0
 22 23  2  0  0  0
M  END
> <rmsd>
0.286639929

$$$$
CHEMBL177990_5TGZ


 31 34  0  0  0  0  0  0  0  0999 V2000
   43.8555   24.8601  321.8484 O   0  0  0  0  0
   44.3442   24.8501  320.6870 C   0  0  0  0  0
   46.7383   22.1026  320.6344 C   0  0  0  0  0
   47.1913   20.9488  321.5395 C   0  0  0  0  0
   46.0657   20.4448  322.4461 C   0  0  0  0  0
   44.7334   20.4141  321.7001 C   0  0  0  0  0
   44.4236   21.7548  321.0117 C   0  0  0  0  0
   44.0152   25.9170  319.7283 C   0  0  0  0  0
   43.9440   27.0573  317.9265 C   0  0  0  0  0
   44.2291   27.4708  316.5407 C   0  0  0  0  0
   43.9014   26.5921  315.5004 C   0  0  0  0  0
   44.1443   26.9453  314.1711 C   0  0  0  0  0
   44.7218   28.1803  313.8723 C   0  0  0  0  0
   45.0736   29.0541  314.9027 C   0  0  0  0  0
   44.8368   28.7076  316.2366 C   0  0  0  0  0
   42.3707   28.9192  318.5477 C   0  0  0  0  0
   41.7282   29.0943  317.3120 C   0  0  0  0  0
   40.9716   30.2416  317.0623 C   0  0  0  0  0
   40.8510   31.2253  318.0465 C   0  0  0  0  0
   41.4813   31.0592  319.2820 C   0  0  0  0  0
   42.2379   29.9113  319.5313 C   0  0  0  0  0
   43.2076   27.0191  319.9405 C   0  0  0  0  0
   42.4904   27.3618  321.2069 C   0  0  0  0  0
   45.2271   23.7964  320.2933 N   0  0  0  0  0
   45.5186   22.7222  321.1461 N   0  0  0  0  0
   44.4730   25.9354  318.4605 N   0  0  0  0  0
   43.1624   27.7408  318.8005 N   0  0  0  0  0
   45.0182   28.6286  312.2065 Cl  0  0  0  0  0
   45.3684   29.8218  317.4869 Cl  0  0  0  0  0
   39.9039   32.6626  317.7343 Cl  0  0  0  0  0
   43.3454   28.0402  322.0542 F   0  0  0  0  0
  2 24  1  0  0  0
  2  8  1  0  0  0
  3 25  1  0  0  0
  3  4  1  0  0  0
  4  5  1  0  0  0
  5  6  1  0  0  0
  6  7  1  0  0  0
  7 25  1  0  0  0
  8 26  1  0  0  0
  9 10  1  0  0  0
  9 27  1  0  0  0
 11 12  1  0  0  0
 13 28  1  0  0  0
 13 14  1  0  0  0
 15 29  1  0  0  0
 15 10  1  0  0  0
 17 18  1  0  0  0
 19 30  1  0  0  0
 19 20  1  0  0  0
 21 16  1  0  0  0
 23 22  1  0  0  0
 23 31  1  0  0  0
 24 25  1  0  0  0
 27 16  1  0  0  0
 27 22  1  0  0  0
  2  1  2  0  0  0
  9 26  2  0  0  0
 10 11  2  0  0  0
 12 13  2  0  0  0
 14 15  2  0  0  0
 16 17  2  0  0  0
 18 19  2  0  0  0
 20 21  2  0  0  0
 22  8  2  0  0  0
M  END
> <rmsd>
0.248562708

$$$$
CHEMBL572887_5TGZ


 29 32  0  0  0  0  0  0  0  0999 V2000
   42.6876   27.5017  321.3642 C   0  0  0  0  0
   43.3034   27.1339  320.0561 C   0  0  0  0  0
   44.0354   25.9946  319.7578 C   0  0  0  0  0
   44.3973   24.9000  320.6714 C   0  0  0  0  0
   45.5742   22.6817  321.0146 C   0  0  0  0  0
   46.7692   21.9598  320.3799 C   0  0  0  0  0
   47.0158   20.5447  320.9087 C   0  0  0  0  0
   47.0842   20.4578  322.4367 C   0  0  0  0  0
   45.7915   20.8737  323.1547 C   0  0  0  0  0
   44.5346   20.6880  322.2973 C   0  0  0  0  0
   44.3504   21.7768  321.2241 C   0  0  0  0  0
   44.1338   27.4852  316.5514 C   0  0  0  0  0
   44.8871   28.6302  316.2550 C   0  0  0  0  0
   45.1441   28.9840  314.9286 C   0  0  0  0  0
   44.6488   28.1953  313.8903 C   0  0  0  0  0
   43.9008   27.0495  314.1763 C   0  0  0  0  0
   43.6468   26.6859  315.5013 C   0  0  0  0  0
   43.2380   27.8312  318.8611 C   0  0  0  0  0
   42.1718   29.9458  319.5898 C   0  0  0  0  0
   41.5055   31.0057  319.0066 C   0  0  0  0  0
   41.4658   30.7492  317.6463 C   0  0  0  0  0
   42.1093   29.5420  317.4546 C   0  0  0  0  0
   43.9950   24.9060  321.8672 O   0  0  0  0  0
   45.2138   23.8273  320.1927 N   0  0  0  0  0
   44.3856   26.0147  318.4554 N   0  0  0  0  0
   43.8987   27.1226  317.9166 N   0  0  0  0  0
   42.5377   29.0703  318.6378 N   0  0  0  0  0
   44.9562   28.6448  312.2271 Cl  0  0  0  0  0
   42.6837   25.2503  315.8139 Cl  0  0  0  0  0
  1  2  1  0  0  0
  2  3  1  0  0  0
  3  4  1  0  0  0
  4 24  1  0  0  0
  5 24  1  0  0  0
  5  6  1  0  0  0
  6  7  1  0  0  0
  7  8  1  0  0  0
  8  9  1  0  0  0
  9 10  1  0  0  0
 10 11  1  0  0  0
 11  5  1  0  0  0
 13 14  1  0  0  0
 15 28  1  0  0  0
 15 16  1  0  0  0
 17 29  1  0  0  0
 17 12  1  0  0  0
 18 27  1  0  0  0
 20 21  1  0  0  0
 22 27  1  0  0  0
 26 25  1  0  0  0
 26 12  1  0  0  0
 26 18  1  0  0  0
 27 19  1  0  0  0
  3 25  2  0  0  0
  4 23  2  0  0  0
 12 13  2  0  0  0
 14 15  2  0  0  0
 16 17  2  0  0  0
 18  2  2  0  0  0
 19 20  2  0  0  0
 21 22  2  0  0  0
M  END
> <rmsd>
0.244040519

$$$$
CHEMBL3941829_5TGZ


 40 45  0  0  0  0  0  0  0  0999 V2000
   46.6099   21.7113  322.2933 C   0  0  0  0  0
   45.5043   21.5601  321.2724 C   0  0  0  0  0
   45.1745   21.4885  322.7453 C   0  0  0  0  0
   45.2872   23.1785  319.3082 C   0  0  0  0  0
   44.8513   24.4940  318.8136 C   0  0  0  0  0
   44.5554   26.8600  316.1932 C   0  0  0  0  0
   45.0722   28.1628  316.2057 C   0  0  0  0  0
   45.1621   28.9041  315.0250 C   0  0  0  0  0
   44.7528   28.3476  313.8078 C   0  0  0  0  0
   44.2156   27.0548  313.7949 C   0  0  0  0  0
   44.1240   26.3055  314.9729 C   0  0  0  0  0
   44.7931   29.1675  312.5516 C   0  0  0  0  0
   44.0372   26.5232  318.6194 C   0  0  0  0  0
   44.2590   25.5150  319.5416 C   0  0  0  0  0
   43.8038   25.4699  320.9680 C   0  0  0  0  0
   44.2292   26.7129  321.7320 C   0  0  0  0  0
   43.3178   27.8841  321.4040 C   0  0  0  0  0
   43.7596   28.5833  320.1259 C   0  0  0  0  0
   43.3733   27.8152  318.8955 C   0  0  0  0  0
   42.4583   28.2670  318.0266 C   0  0  0  0  0
   41.7190   29.5427  318.0706 C   0  0  0  0  0
   40.6752   29.8421  317.2036 C   0  0  0  0  0
   40.1491   31.1289  317.3894 C   0  0  0  0  0
   40.7933   31.8301  318.3967 C   0  0  0  0  0
   45.3244   20.2606  320.5507 C   0  0  0  0  0
   46.4297   19.6103  319.9879 C   0  0  0  0  0
   46.2431   18.4055  319.3091 C   0  0  0  0  0
   44.9615   17.8654  319.1940 C   0  0  0  0  0
   43.8808   18.5438  319.7625 C   0  0  0  0  0
   45.0253   22.7943  320.6629 N   0  0  0  0  0
   44.9941   24.8837  317.5310 N   0  0  0  0  0
   44.4946   26.1054  317.4147 N   0  0  0  0  0
   44.0823   19.7166  320.4230 N   0  0  0  0  0
   45.8927   22.3935  318.5272 O   0  0  0  0  0
   43.4129   24.7014  314.8867 Cl  0  0  0  0  0
   40.4305   33.4726  318.8771 Cl  0  0  0  0  0
   45.9167   29.9748  312.5421 F   0  0  0  0  0
   44.8302   28.3460  311.4375 F   0  0  0  0  0
   43.6650   29.9627  312.4896 F   0  0  0  0  0
   42.0099   30.8805  319.0540 S   0  0  0  0  0
  1  2  1  0  0  0
  2  3  1  0  0  0
  2 30  1  0  0  0
  2 25  1  0  0  0
  3  1  1  0  0  0
  4  5  1  0  0  0
  7  8  1  0  0  0
  9 10  1  0  0  0
 11 35  1  0  0  0
 11  6  1  0  0  0
 12  9  1  0  0  0
 12 37  1  0  0  0
 12 38  1  0  0  0
 12 39  1  0  0  0
 14  5  1  0  0  0
 15 14  1  0  0  0
 15 16  1  0  0  0
 16 17  1  0  0  0
 17 18  1  0  0  0
 18 19  1  0  0  0
 19 13  1  0  0  0
 20 21  1  0  0  0
 21 40  1  0  0  0
 22 23  1  0  0  0
 24 40  1  0  0  0
 24 36  1  0  0  0
 25 33  1  0  0  0
 26 27  1  0  0  0
 28 29  1  0  0  0
 30  4  1  0  0  0
 32 31  1  0  0  0
 32  6  1  0  0  0
 32 13  1  0  0  0
  4 34  2  0  0  0
  5 31  2  0  0  0
  6  7  2  0  0  0
  8  9  2  0  0  0
 10 11  2  0  0  0
 13 14  2  0  0  0
 19 20  2  0  0  0
 21 22  2  0  0  0
 23 24  2  0  0  0
 25 26  2  0  0  0
 27 28  2  0  0  0
 29 33  2  0  0  0
M  END
> <rmsd>
0.750890493

$$$$
CHEMBL1909848_5TGZ


 32 36  0  0  0  0  0  0  0  0999 V2000
   42.6857   27.5466  321.4131 C   0  0  0  0  0
   43.3549   27.1933  320.1273 C   0  0  0  0  0
   44.1186   26.0683  319.8517 C   0  0  0  0  0
   44.4827   24.9885  320.7819 C   0  0  0  0  0
   45.6500   22.7743  321.1642 C   0  0  0  0  0
   44.4403   21.8704  321.4054 C   0  0  0  0  0
   44.8372   20.6807  322.2749 C   0  0  0  0  0
   45.9573   19.8900  321.6044 C   0  0  0  0  0
   47.1651   20.7910  321.3608 C   0  0  0  0  0
   46.7673   21.9811  320.4918 C   0  0  0  0  0
   44.2311   27.5263  316.6302 C   0  0  0  0  0
   43.7810   26.6648  315.6218 C   0  0  0  0  0
   44.0011   26.9741  314.2774 C   0  0  0  0  0
   44.6809   28.1442  313.9327 C   0  0  0  0  0
   45.1543   28.9978  314.9319 C   0  0  0  0  0
   44.9380   28.6949  316.2795 C   0  0  0  0  0
   43.2889   27.8728  318.9236 C   0  0  0  0  0
   42.1564   29.9753  319.5951 C   0  0  0  0  0
   41.4209   30.9516  318.9628 C   0  0  0  0  0
   41.3794   30.6404  317.6280 C   0  0  0  0  0
   42.0470   29.4497  317.4582 C   0  0  0  0  0
   40.6154   31.4289  316.6125 C   0  0  0  0  0
   40.3430   32.8459  317.1399 C   0  0  0  0  0
   39.8163   32.8121  318.5834 C   0  0  0  0  0
   40.8543   32.2090  319.5422 C   0  0  0  0  0
   44.1063   25.0288  321.9846 O   0  0  0  0  0
   45.2728   23.8926  320.3132 N   0  0  0  0  0
   44.4926   26.0846  318.5555 N   0  0  0  0  0
   43.9959   27.1798  318.0004 N   0  0  0  0  0
   42.5271   29.0666  318.6638 N   0  0  0  0  0
   44.9543   28.5333  312.2487 Cl  0  0  0  0  0
   45.6045   29.7718  317.4967 Cl  0  0  0  0  0
  1  2  1  0  0  0
  2  3  1  0  0  0
  3  4  1  0  0  0
  4 27  1  0  0  0
  5 27  1  0  0  0
  5  6  1  0  0  0
  6  7  1  0  0  0
  7  8  1  0  0  0
  8  9  1  0  0  0
  9 10  1  0  0  0
 10  5  1  0  0  0
 12 13  1  0  0  0
 14 31  1  0  0  0
 14 15  1  0  0  0
 16 32  1  0  0  0
 16 11  1  0  0  0
 17 30  1  0  0  0
 19 20  1  0  0  0
 21 30  1  0  0  0
 22 20  1  0  0  0
 22 23  1  0  0  0
 23 24  1  0  0  0
 24 25  1  0  0  0
 25 19  1  0  0  0
 29 28  1  0  0  0
 29 11  1  0  0  0
 29 17  1  0  0  0
 30 18  1  0  0  0
  3 28  2  0  0  0
  4 26  2  0  0  0
 11 12  2  0  0  0
 13 14  2  0  0  0
 15 16  2  0  0  0
 17  2  2  0  0  0
 18 19  2  0  0  0
 20 21  2  0  0  0
M  END
> <rmsd>
0.27765888

$$$$
CHEMBL1909860_6KQI


 29 32  0  0  0  0  0  0  0  0999 V2000
   43.2935   27.5121  322.1838 C   0  0  0  0  0
   42.3279   27.0813  321.0964 C   0  0  0  0  0
   43.0634   26.8248  319.8201 C   0  0  0  0  0
   43.9360   25.7871  319.5205 C   0  0  0  0  0
   44.2923   24.6424  320.3735 C   0  0  0  0  0
   45.6982   22.5207  320.6591 C   0  0  0  0  0
   44.5263   21.5695  320.9074 C   0  0  0  0  0
   44.9970   20.3441  321.6853 C   0  0  0  0  0
   45.6328   20.7694  323.0060 C   0  0  0  0  0
   46.8175   21.6955  322.7447 C   0  0  0  0  0
   46.3611   22.9317  321.9752 C   0  0  0  0  0
   44.1612   27.5030  316.4282 C   0  0  0  0  0
   45.3971   27.2265  315.8284 C   0  0  0  0  0
   45.6416   27.6039  314.5058 C   0  0  0  0  0
   44.6507   28.2522  313.7634 C   0  0  0  0  0
   43.4015   28.5157  314.3498 C   0  0  0  0  0
   43.1622   28.1334  315.6723 C   0  0  0  0  0
   43.0707   27.6195  318.6888 C   0  0  0  0  0
   42.9758   30.0074  318.0370 C   0  0  0  0  0
   42.0831   31.0538  318.1584 C   0  0  0  0  0
   40.9655   30.5504  318.8043 C   0  0  0  0  0
   41.2179   29.2156  319.0527 C   0  0  0  0  0
   43.7434   24.4906  321.4981 O   0  0  0  0  0
   45.2627   23.6952  319.9095 N   0  0  0  0  0
   44.4317   25.9629  318.2783 N   0  0  0  0  0
   43.9076   27.0718  317.7751 N   0  0  0  0  0
   42.4314   28.9002  318.5699 N   0  0  0  0  0
   45.0029   28.7109  312.1057 Cl  0  0  0  0  0
   42.1175   29.3168  313.4599 Cl  0  0  0  0  0
  1  2  1  0  0  0
  2  3  1  0  0  0
  3  4  1  0  0  0
  4  5  1  0  0  0
  5 24  1  0  0  0
  6 24  1  0  0  0
  6  7  1  0  0  0
  7  8  1  0  0  0
  8  9  1  0  0  0
  9 10  1  0  0  0
 10 11  1  0  0  0
 11  6  1  0  0  0
 13 14  1  0  0  0
 15 28  1  0  0  0
 15 16  1  0  0  0
 16 29  1  0  0  0
 17 12  1  0  0  0
 18 27  1  0  0  0
 20 21  1  0  0  0
 22 27  1  0  0  0
 26 25  1  0  0  0
 26 12  1  0  0  0
 26 18  1  0  0  0
 27 19  1  0  0  0
  4 25  2  0  0  0
  5 23  2  0  0  0
 12 13  2  0  0  0
 14 15  2  0  0  0
 16 17  2  0  0  0
 18  3  2  0  0  0
 19 20  2  0  0  0
 21 22  2  0  0  0
M  END
> <rmsd>
0.391759068

$$$$
CHEMBL15764_5TGZ


 29 31  0  0  0  0  0  0  0  0999 V2000
   42.9185   27.3160  321.4042 C   0  0  0  0  0
   43.5967   27.0585  320.0995 C   0  0  0  0  0
   44.4730   26.0271  319.7994 C   0  0  0  0  0
   44.9722   24.9851  320.7103 C   0  0  0  0  0
   46.3898   22.8479  320.9639 C   0  0  0  0  0
   47.0534   23.2763  322.2689 C   0  0  0  0  0
   45.3462   21.7359  321.1185 C   0  0  0  0  0
   46.0222   20.4143  321.4279 C   0  0  0  0  0
   44.2997   22.0365  322.1790 C   0  0  0  0  0
   44.3636   27.5133  316.5945 C   0  0  0  0  0
   43.9748   26.6217  315.5865 C   0  0  0  0  0
   44.1345   26.9623  314.2414 C   0  0  0  0  0
   44.6921   28.1948  313.8947 C   0  0  0  0  0
   45.1042   29.0809  314.8928 C   0  0  0  0  0
   44.9476   28.7473  316.2414 C   0  0  0  0  0
   43.4245   27.7437  318.9058 C   0  0  0  0  0
   42.5130   28.8915  318.6736 C   0  0  0  0  0
   42.2223   29.7884  319.7125 C   0  0  0  0  0
   41.3631   30.8697  319.4981 C   0  0  0  0  0
   40.7842   31.0626  318.2416 C   0  0  0  0  0
   41.0614   30.1728  317.2014 C   0  0  0  0  0
   41.9202   29.0921  317.4180 C   0  0  0  0  0
   44.6217   24.9799  321.9207 O   0  0  0  0  0
   45.8717   23.9878  320.2092 N   0  0  0  0  0
   44.8158   26.0963  318.4985 N   0  0  0  0  0
   44.1900   27.1349  317.9659 N   0  0  0  0  0
   44.8901   28.6226  312.2096 Cl  0  0  0  0  0
   45.5381   29.8713  317.4550 Cl  0  0  0  0  0
   39.7094   32.4170  317.9716 Cl  0  0  0  0  0
  1  2  1  0  0  0
  2  3  1  0  0  0
  3  4  1  0  0  0
  4 24  1  0  0  0
  5 24  1  0  0  0
  5  6  1  0  0  0
  5  7  1  0  0  0
  7  8  1  0  0  0
  7  9  1  0  0  0
 11 12  1  0  0  0
 13 27  1  0  0  0
 13 14  1  0  0  0
 15 28  1  0  0  0
 15 10  1  0  0  0
 16 17  1  0  0  0
 18 19  1  0  0  0
 20 29  1  0  0  0
 20 21  1  0  0  0
 22 17  1  0  0  0
 26 25  1  0  0  0
 26 10  1  0  0  0
 26 16  1  0  0  0
  3 25  2  0  0  0
  4 23  2  0  0  0
 10 11  2  0  0  0
 12 13  2  0  0  0
 14 15  2  0  0  0
 16  2  2  0  0  0
 17 18  2  0  0  0
 19 20  2  0  0  0
 21 22  2  0  0  0
M  END
> <rmsd>
0.483734488

$$$$
