CHEMBL385767_5U09


 31 33  0  0  0  0  0  0  0  0999 V2000
   23.0290    4.7002   -9.8400 C   0  0  0  0  0
   22.0482    3.5429   -9.9259 C   0  0  0  0  0
   20.9104    3.1873  -12.1554 C   0  0  0  0  0
   19.7581    3.4991  -13.0745 C   0  0  0  0  0
   20.1301    3.2623  -14.5334 C   0  0  0  0  0
   18.6139    2.5668  -12.7299 C   0  0  0  0  0
   20.0684    6.0046  -13.1223 C   0  0  0  0  0
   21.4004    5.9470  -13.5665 C   0  0  0  0  0
   22.1277    7.1221  -13.7737 C   0  0  0  0  0
   21.5301    8.3631  -13.5393 C   0  0  0  0  0
   20.2057    8.4281  -13.0982 C   0  0  0  0  0
   19.4788    7.2520  -12.8907 C   0  0  0  0  0
   21.3996    3.2827   -8.5576 C   0  0  0  0  0
   20.2353    2.2767   -8.5966 C   0  0  0  0  0
   20.6501    0.8523   -8.8004 C   0  0  0  0  0
   20.4556   -0.0719   -7.7681 C   0  0  0  0  0
   20.8279   -1.4080   -7.9425 C   0  0  0  0  0
   21.3908   -1.8243   -9.1525 C   0  0  0  0  0
   21.5761   -0.9061  -10.1900 C   0  0  0  0  0
   21.2037    0.4295  -10.0148 C   0  0  0  0  0
   22.3919    2.9880   -7.4652 C   0  0  0  0  0
   23.3148    1.9365   -7.5790 C   0  0  0  0  0
   24.2325    1.6919   -6.5537 C   0  0  0  0  0
   24.2361    2.4990   -5.4126 C   0  0  0  0  0
   23.3233    3.5514   -5.2976 C   0  0  0  0  0
   22.4047    3.7961   -6.3229 C   0  0  0  0  0
   21.0267    3.8758  -10.9074 N   0  0  0  0  0
   21.7412    2.2869  -12.4588 O   0  0  0  0  0
   19.3054    4.8471  -12.8961 O   0  0  0  0  0
   19.6262    9.6310  -12.8710 F   0  0  0  0  0
   21.8585   -3.4964   -9.3704 Cl  0  0  0  0  0
  2  1  1  0  0  0
  2 27  1  0  0  0
  2 13  1  0  0  0
  4  3  1  0  0  0
  4  5  1  0  0  0
  4  6  1  0  0  0
  4 29  1  0  0  0
  7 29  1  0  0  0
  8  9  1  0  0  0
 10 11  1  0  0  0
 11 30  1  0  0  0
 12  7  1  0  0  0
 13 14  1  0  0  0
 13 21  1  0  0  0
 14 15  1  0  0  0
 16 17  1  0  0  0
 18 31  1  0  0  0
 18 19  1  0  0  0
 20 15  1  0  0  0
 22 23  1  0  0  0
 24 25  1  0  0  0
 26 21  1  0  0  0
 27  3  1  0  0  0
  3 28  2  0  0  0
  7  8  2  0  0  0
  9 10  2  0  0  0
 11 12  2  0  0  0
 15 16  2  0  0  0
 17 18  2  0  0  0
 19 20  2  0  0  0
 21 22  2  0  0  0
 23 24  2  0  0  0
 25 26  2  0  0  0
M  END
> <rmsd>
0.659639359

$$$$
CHEMBL2113253_5U09


 34 36  0  0  0  0  0  0  0  0999 V2000
   21.3530    3.5676   -8.5920 C   0  0  0  0  0
   21.8136    2.8711   -9.8625 C   0  0  0  0  0
   20.7880    3.4915  -12.0828 C   0  0  0  0  0
   19.6352    3.4128  -13.0498 C   0  0  0  0  0
   19.8839    2.2504  -13.9897 C   0  0  0  0  0
   18.3155    3.1537  -12.3321 C   0  0  0  0  0
   19.2978    5.8987  -13.3290 C   0  0  0  0  0
   19.2335    6.9691  -14.2277 C   0  0  0  0  0
   18.9957    8.2674  -13.7667 C   0  0  0  0  0
   18.8195    8.5029  -12.4005 C   0  0  0  0  0
   18.8819    7.4407  -11.4949 C   0  0  0  0  0
   19.1204    6.1435  -11.9567 C   0  0  0  0  0
   22.3475    1.4525   -9.6147 C   0  0  0  0  0
   23.7691    1.3747   -9.0412 C   0  0  0  0  0
   23.9060    1.9040   -7.6496 C   0  0  0  0  0
   24.4434    3.1789   -7.4450 C   0  0  0  0  0
   24.6113    3.6689   -6.1472 C   0  0  0  0  0
   24.2440    2.8879   -5.0414 C   0  0  0  0  0
   24.4707    3.3944   -3.6469 C   0  0  0  0  0
   23.7488    1.5926   -5.2510 C   0  0  0  0  0
   23.5814    1.1031   -6.5490 C   0  0  0  0  0
   21.3680    0.4530   -9.0625 C   0  0  0  0  0
   20.7573    0.6291   -7.8126 C   0  0  0  0  0
   19.8390   -0.3117   -7.3379 C   0  0  0  0  0
   19.5228   -1.4313   -8.1121 C   0  0  0  0  0
   20.1205   -1.6066   -9.3635 C   0  0  0  0  0
   21.0393   -0.6655   -9.8372 C   0  0  0  0  0
   20.7174    2.8298  -10.8167 N   0  0  0  0  0
   21.8426    4.0969  -12.4185 O   0  0  0  0  0
   19.5405    4.6098  -13.8323 O   0  0  0  0  0
   18.5222   10.1282  -11.8236 Cl  0  0  0  0  0
   25.7341    3.0220   -3.2256 F   0  0  0  0  0
   24.3710    4.7751   -3.6120 F   0  0  0  0  0
   23.5299    2.8620   -2.7819 F   0  0  0  0  0
  2  1  1  0  0  0
  2 28  1  0  0  0
  2 13  1  0  0  0
  4  3  1  0  0  0
  4  5  1  0  0  0
  4  6  1  0  0  0
  4 30  1  0  0  0
  7 30  1  0  0  0
  8  9  1  0  0  0
 10 31  1  0  0  0
 10 11  1  0  0  0
 12  7  1  0  0  0
 13 14  1  0  0  0
 13 22  1  0  0  0
 14 15  1  0  0  0
 16 17  1  0  0  0
 18 20  1  0  0  0
 19 18  1  0  0  0
 19 32  1  0  0  0
 19 33  1  0  0  0
 19 34  1  0  0  0
 21 15  1  0  0  0
 23 24  1  0  0  0
 25 26  1  0  0  0
 27 22  1  0  0  0
 28  3  1  0  0  0
  3 29  2  0  0  0
  7  8  2  0  0  0
  9 10  2  0  0  0
 11 12  2  0  0  0
 15 16  2  0  0  0
 17 18  2  0  0  0
 20 21  2  0  0  0
 22 23  2  0  0  0
 24 25  2  0  0  0
 26 27  2  0  0  0
M  END
> <rmsd>
0.822786868

$$$$
CHEMBL2113255_5U09


 30 32  0  0  0  0  0  0  0  0999 V2000
   21.7509    5.0521   -9.1296 C   0  0  0  0  0
   21.8127    3.7300   -9.8761 C   0  0  0  0  0
   21.0760    3.6014  -12.2879 C   0  0  0  0  0
   19.9557    3.5948  -13.2955 C   0  0  0  0  0
   19.5171    2.1595  -13.5068 C   0  0  0  0  0
   20.4144    4.1459  -14.6403 C   0  0  0  0  0
   18.8248    5.7109  -12.5081 C   0  0  0  0  0
   19.9712    6.5119  -12.6465 C   0  0  0  0  0
   19.9280    7.8699  -12.3198 C   0  0  0  0  0
   18.7398    8.4373  -11.8524 C   0  0  0  0  0
   17.5957    7.6473  -11.7130 C   0  0  0  0  0
   17.6397    6.2889  -12.0404 C   0  0  0  0  0
   21.6157    2.5515   -8.9155 C   0  0  0  0  0
   21.5611    1.2268   -9.6798 C   0  0  0  0  0
   20.9619    0.1424   -8.8472 C   0  0  0  0  0
   19.6161    0.2021   -8.4633 C   0  0  0  0  0
   19.0632   -0.8219   -7.6881 C   0  0  0  0  0
   19.8531   -1.9076   -7.2982 C   0  0  0  0  0
   21.1953   -1.9710   -7.6852 C   0  0  0  0  0
   21.7486   -0.9478   -8.4608 C   0  0  0  0  0
   22.6869    2.5047   -7.8617 C   0  0  0  0  0
   24.0381    2.3400   -8.2047 C   0  0  0  0  0
   25.0150    2.2929   -7.2062 C   0  0  0  0  0
   24.6470    2.4089   -5.8627 C   0  0  0  0  0
   23.3022    2.5713   -5.5172 C   0  0  0  0  0
   22.3243    2.6187   -6.5150 C   0  0  0  0  0
   20.7744    3.7259  -10.8958 N   0  0  0  0  0
   22.2703    3.4356  -12.6615 O   0  0  0  0  0
   18.8288    4.3409  -12.8188 O   0  0  0  0  0
   18.6848   10.1376  -11.4420 Cl  0  0  0  0  0
  2  1  1  0  0  0
  2 27  1  0  0  0
  2 13  1  0  0  0
  4  3  1  0  0  0
  4  5  1  0  0  0
  4  6  1  0  0  0
  4 29  1  0  0  0
  7 29  1  0  0  0
  8  9  1  0  0  0
 10 30  1  0  0  0
 10 11  1  0  0  0
 12  7  1  0  0  0
 13 14  1  0  0  0
 13 21  1  0  0  0
 14 15  1  0  0  0
 16 17  1  0  0  0
 18 19  1  0  0  0
 20 15  1  0  0  0
 22 23  1  0  0  0
 24 25  1  0  0  0
 26 21  1  0  0  0
 27  3  1  0  0  0
  3 28  2  0  0  0
  7  8  2  0  0  0
  9 10  2  0  0  0
 11 12  2  0  0  0
 15 16  2  0  0  0
 17 18  2  0  0  0
 19 20  2  0  0  0
 21 22  2  0  0  0
 23 24  2  0  0  0
 25 26  2  0  0  0
M  END
> <rmsd>
0.411329418

$$$$
CHEMBL219188_5U09


 31 33  0  0  0  0  0  0  0  0999 V2000
   20.6742    5.0668   -8.4935 C   0  0  0  0  0
   21.3477    4.1712   -9.5227 C   0  0  0  0  0
   20.9674    3.5184  -11.9458 C   0  0  0  0  0
   20.0124    3.3919  -13.1041 C   0  0  0  0  0
   20.7479    3.4266  -14.4386 C   0  0  0  0  0
   19.3129    2.0517  -12.9946 C   0  0  0  0  0
   19.2579    5.8010  -13.1542 C   0  0  0  0  0
   20.5544    6.3245  -13.2953 C   0  0  0  0  0
   20.7542    7.7053  -13.3739 C   0  0  0  0  0
   19.6609    8.5730  -13.3124 C   0  0  0  0  0
   18.3687    8.0599  -13.1728 C   0  0  0  0  0
   18.1696    6.6783  -13.0940 C   0  0  0  0  0
   21.6273    2.7610   -8.9836 C   0  0  0  0  0
   20.3735    2.0659   -8.4387 C   0  0  0  0  0
   20.3951    0.5698   -8.5696 C   0  0  0  0  0
   19.3420   -0.1602   -8.0082 C   0  0  0  0  0
   19.3121   -1.5540   -8.1136 C   0  0  0  0  0
   20.3367   -2.2263   -8.7853 C   0  0  0  0  0
   21.3900   -1.5054   -9.3539 C   0  0  0  0  0
   21.4190   -0.1122   -9.2482 C   0  0  0  0  0
   22.7683    2.7279   -8.0099 C   0  0  0  0  0
   23.9614    2.0985   -8.3828 C   0  0  0  0  0
   25.0373    2.0446   -7.4918 C   0  0  0  0  0
   24.9238    2.6191   -6.2227 C   0  0  0  0  0
   23.7342    3.2474   -5.8434 C   0  0  0  0  0
   22.6580    3.3015   -6.7339 C   0  0  0  0  0
   20.5181    4.1009  -10.7176 N   0  0  0  0  0
   22.1394    3.0578  -12.0342 O   0  0  0  0  0
   19.0151    4.4203  -13.0663 O   0  0  0  0  0
   19.9099   10.3025  -13.4103 Cl  0  0  0  0  0
   20.2993   -3.9710   -8.9167 Cl  0  0  0  0  0
  2  1  1  0  0  0
  2 27  1  0  0  0
  2 13  1  0  0  0
  4  3  1  0  0  0
  4  5  1  0  0  0
  4  6  1  0  0  0
  4 29  1  0  0  0
  7 29  1  0  0  0
  8  9  1  0  0  0
 10 30  1  0  0  0
 10 11  1  0  0  0
 12  7  1  0  0  0
 13 14  1  0  0  0
 13 21  1  0  0  0
 14 15  1  0  0  0
 16 17  1  0  0  0
 18 31  1  0  0  0
 18 19  1  0  0  0
 20 15  1  0  0  0
 22 23  1  0  0  0
 24 25  1  0  0  0
 26 21  1  0  0  0
 27  3  1  0  0  0
  3 28  2  0  0  0
  7  8  2  0  0  0
  9 10  2  0  0  0
 11 12  2  0  0  0
 15 16  2  0  0  0
 17 18  2  0  0  0
 19 20  2  0  0  0
 21 22  2  0  0  0
 23 24  2  0  0  0
 25 26  2  0  0  0
M  END
> <rmsd>
0.442867815

$$$$
CHEMBL2096840_5U09


 32 34  0  0  0  0  0  0  0  0999 V2000
   22.9937    4.8076  -10.1254 C   0  0  0  0  0
   21.6891    4.1626   -9.6782 C   0  0  0  0  0
   20.9444    3.3867  -12.0054 C   0  0  0  0  0
   19.8783    3.4012  -13.0696 C   0  0  0  0  0
   18.9007    2.2812  -12.7741 C   0  0  0  0  0
   20.4675    3.1533  -14.4534 C   0  0  0  0  0
   19.7069    5.9096  -13.2963 C   0  0  0  0  0
   21.0714    6.0923  -13.5785 C   0  0  0  0  0
   21.5812    7.3739  -13.8033 C   0  0  0  0  0
   20.7319    8.4818  -13.7482 C   0  0  0  0  0
   19.3738    8.3081  -13.4689 C   0  0  0  0  0
   18.8646    7.0256  -13.2438 C   0  0  0  0  0
   21.9206    2.7596   -9.0986 C   0  0  0  0  0
   20.5908    2.0883   -8.7409 C   0  0  0  0  0
   20.6183    0.5888   -8.8234 C   0  0  0  0  0
   19.4765   -0.1178   -8.4307 C   0  0  0  0  0
   19.4500   -1.5139   -8.4996 C   0  0  0  0  0
   20.5674   -2.2121   -8.9654 C   0  0  0  0  0
   21.7106   -1.5149   -9.3644 C   0  0  0  0  0
   21.7363   -0.1193   -9.2955 C   0  0  0  0  0
   22.8276    2.7891   -7.9017 C   0  0  0  0  0
   24.0497    2.1093   -7.9538 C   0  0  0  0  0
   24.9093    2.1225   -6.8515 C   0  0  0  0  0
   24.5498    2.8164   -5.6925 C   0  0  0  0  0
   23.3309    3.4983   -5.6350 C   0  0  0  0  0
   22.4707    3.4857   -6.7364 C   0  0  0  0  0
   20.7442    4.1273  -10.7933 N   0  0  0  0  0
   21.9773    2.6754  -12.1497 O   0  0  0  0  0
   19.1568    4.6392  -13.0587 O   0  0  0  0  0
   21.3691   10.0874  -14.0288 Cl  0  0  0  0  0
   20.5341   -3.9597   -9.0511 Cl  0  0  0  0  0
   25.6265    2.8319   -4.3131 Cl  0  0  0  0  0
  2  1  1  0  0  0
  2 27  1  0  0  0
  2 13  1  0  0  0
  4  3  1  0  0  0
  4  5  1  0  0  0
  4  6  1  0  0  0
  4 29  1  0  0  0
  7 29  1  0  0  0
  8  9  1  0  0  0
 10 30  1  0  0  0
 10 11  1  0  0  0
 12  7  1  0  0  0
 13 14  1  0  0  0
 13 21  1  0  0  0
 14 15  1  0  0  0
 16 17  1  0  0  0
 18 31  1  0  0  0
 18 19  1  0  0  0
 20 15  1  0  0  0
 22 23  1  0  0  0
 24 32  1  0  0  0
 24 25  1  0  0  0
 26 21  1  0  0  0
 27  3  1  0  0  0
  3 28  2  0  0  0
  7  8  2  0  0  0
  9 10  2  0  0  0
 11 12  2  0  0  0
 15 16  2  0  0  0
 17 18  2  0  0  0
 19 20  2  0  0  0
 21 22  2  0  0  0
 23 24  2  0  0  0
 25 26  2  0  0  0
M  END
> <rmsd>
0.463399678

$$$$
CHEMBL511245_5U09


 32 34  0  0  0  0  0  0  0  0999 V2000
   20.6522    5.0516   -8.5154 C   0  0  0  0  0
   21.3147    4.1490   -9.5451 C   0  0  0  0  0
   20.9457    3.5262  -11.9782 C   0  0  0  0  0
   20.0057    3.4460  -13.1529 C   0  0  0  0  0
   19.2742    2.1204  -13.0824 C   0  0  0  0  0
   20.7635    3.4913  -14.4744 C   0  0  0  0  0
   19.3076    5.8725  -13.1639 C   0  0  0  0  0
   18.2388    6.7737  -13.1063 C   0  0  0  0  0
   18.4710    8.1515  -13.1517 C   0  0  0  0  0
   19.7771    8.6375  -13.2556 C   0  0  0  0  0
   20.8509    7.7454  -13.3146 C   0  0  0  0  0
   20.6181    6.3683  -13.2692 C   0  0  0  0  0
   21.5501    2.7269   -9.0168 C   0  0  0  0  0
   20.2743    2.0569   -8.5012 C   0  0  0  0  0
   20.4071    0.5712   -8.5138 C   0  0  0  0  0
   20.5158   -0.1209   -9.7266 C   0  0  0  0  0
   20.6365   -1.5135   -9.7290 C   0  0  0  0  0
   20.6461   -2.2162   -8.5204 C   0  0  0  0  0
   20.5316   -1.5271   -7.3093 C   0  0  0  0  0
   20.4106   -0.1344   -7.3062 C   0  0  0  0  0
   22.6794    2.6513   -8.0316 C   0  0  0  0  0
   23.8512    1.9776   -8.3941 C   0  0  0  0  0
   24.9131    1.8763   -7.4904 C   0  0  0  0  0
   24.8058    2.4468   -6.2187 C   0  0  0  0  0
   23.6369    3.1186   -5.8499 C   0  0  0  0  0
   22.5749    3.2201   -6.7531 C   0  0  0  0  0
   20.4992    4.1132  -10.7513 N   0  0  0  0  0
   22.1009    3.0229  -12.0531 O   0  0  0  0  0
   19.0318    4.4963  -13.1094 O   0  0  0  0  0
   17.4296    9.0156  -13.0949 F   0  0  0  0  0
   22.1175    8.2152  -13.4139 F   0  0  0  0  0
   20.7986   -3.9596   -8.5236 Cl  0  0  0  0  0
  2  1  1  0  0  0
  2 27  1  0  0  0
  2 13  1  0  0  0
  4  3  1  0  0  0
  4  5  1  0  0  0
  4  6  1  0  0  0
  4 29  1  0  0  0
  7 29  1  0  0  0
  8  9  1  0  0  0
  9 30  1  0  0  0
 10 11  1  0  0  0
 11 31  1  0  0  0
 12  7  1  0  0  0
 13 14  1  0  0  0
 13 21  1  0  0  0
 14 15  1  0  0  0
 16 17  1  0  0  0
 18 32  1  0  0  0
 18 19  1  0  0  0
 20 15  1  0  0  0
 22 23  1  0  0  0
 24 25  1  0  0  0
 26 21  1  0  0  0
 27  3  1  0  0  0
  3 28  2  0  0  0
  7  8  2  0  0  0
  9 10  2  0  0  0
 11 12  2  0  0  0
 15 16  2  0  0  0
 17 18  2  0  0  0
 19 20  2  0  0  0
 21 22  2  0  0  0
 23 24  2  0  0  0
 25 26  2  0  0  0
M  END
> <rmsd>
0.367069811

$$$$
CHEMBL2113249_5U09


 32 34  0  0  0  0  0  0  0  0999 V2000
   20.5027    4.9664   -8.4589 C   0  0  0  0  0
   21.2091    4.1078   -9.4984 C   0  0  0  0  0
   20.8620    3.4611  -11.9317 C   0  0  0  0  0
   19.9473    3.4397  -13.1291 C   0  0  0  0  0
   18.9010    2.3652  -12.9070 C   0  0  0  0  0
   20.6963    3.0973  -14.4132 C   0  0  0  0  0
   19.9101    5.9345  -13.5023 C   0  0  0  0  0
   19.1182    7.0770  -13.6747 C   0  0  0  0  0
   19.7140    8.3219  -13.9109 C   0  0  0  0  0
   21.1067    8.4331  -13.9690 C   0  0  0  0  0
   21.9046    7.2979  -13.7953 C   0  0  0  0  0
   21.3096    6.0543  -13.5652 C   0  0  0  0  0
   21.5138    2.6922   -8.9867 C   0  0  0  0  0
   20.2739    1.9551   -8.4737 C   0  0  0  0  0
   20.4718    0.4769   -8.5230 C   0  0  0  0  0
   20.5696   -0.2498   -7.3318 C   0  0  0  0  0
   20.7447   -1.6367   -7.3691 C   0  0  0  0  0
   20.8230   -2.2988   -8.5991 C   0  0  0  0  0
   20.7214   -1.5744   -9.7915 C   0  0  0  0  0
   20.5454   -0.1876   -9.7539 C   0  0  0  0  0
   22.6491    2.6702   -8.0049 C   0  0  0  0  0
   23.8808    2.1367   -8.4034 C   0  0  0  0  0
   24.9555    2.1016   -7.5093 C   0  0  0  0  0
   24.7998    2.5947   -6.2104 C   0  0  0  0  0
   23.5713    3.1278   -5.8067 C   0  0  0  0  0
   22.4960    3.1631   -6.6995 C   0  0  0  0  0
   20.4028    4.0535  -10.7110 N   0  0  0  0  0
   22.0092    2.9353  -11.9886 O   0  0  0  0  0
   19.2783    4.6987  -13.2747 O   0  0  0  0  0
   21.8531    9.9891  -14.2700 Cl  0  0  0  0  0
   21.0286   -4.0363   -8.6454 Cl  0  0  0  0  0
   25.8470    2.5787   -5.3502 F   0  0  0  0  0
  2  1  1  0  0  0
  2 27  1  0  0  0
  2 13  1  0  0  0
  4  3  1  0  0  0
  4  5  1  0  0  0
  4  6  1  0  0  0
  4 29  1  0  0  0
  7 29  1  0  0  0
  8  9  1  0  0  0
 10 30  1  0  0  0
 10 11  1  0  0  0
 12  7  1  0  0  0
 13 14  1  0  0  0
 13 21  1  0  0  0
 14 15  1  0  0  0
 16 17  1  0  0  0
 18 31  1  0  0  0
 18 19  1  0  0  0
 20 15  1  0  0  0
 22 23  1  0  0  0
 24 32  1  0  0  0
 24 25  1  0  0  0
 26 21  1  0  0  0
 27  3  1  0  0  0
  3 28  2  0  0  0
  7  8  2  0  0  0
  9 10  2  0  0  0
 11 12  2  0  0  0
 15 16  2  0  0  0
 17 18  2  0  0  0
 19 20  2  0  0  0
 21 22  2  0  0  0
 23 24  2  0  0  0
 25 26  2  0  0  0
M  END
> <rmsd>
0.342346847

$$$$
CHEMBL219480_5U09


 32 34  0  0  0  0  0  0  0  0999 V2000
   21.7461    5.0547   -9.1277 C   0  0  0  0  0
   21.8080    3.7333   -9.8754 C   0  0  0  0  0
   21.0753    3.6050  -12.2880 C   0  0  0  0  0
   19.9578    3.5997  -13.2985 C   0  0  0  0  0
   20.4172    4.1646  -14.6373 C   0  0  0  0  0
   19.5291    2.1632  -13.5228 C   0  0  0  0  0
   18.8097    5.7019  -12.4993 C   0  0  0  0  0
   19.9513    6.5112  -12.6266 C   0  0  0  0  0
   19.8978    7.8664  -12.2905 C   0  0  0  0  0
   18.7038    8.4237  -11.8255 C   0  0  0  0  0
   17.5642    7.6252  -11.6976 C   0  0  0  0  0
   17.6187    6.2691  -12.0334 C   0  0  0  0  0
   21.6100    2.5540   -8.9158 C   0  0  0  0  0
   21.5491    1.2300   -9.6811 C   0  0  0  0  0
   20.9574    0.1448   -8.8443 C   0  0  0  0  0
   21.7467   -0.9471   -8.4682 C   0  0  0  0  0
   21.2010   -1.9698   -7.6866 C   0  0  0  0  0
   19.8640   -1.9034   -7.2829 C   0  0  0  0  0
   19.0713   -0.8161   -7.6627 C   0  0  0  0  0
   19.6165    0.2069   -8.4441 C   0  0  0  0  0
   22.6838    2.5030   -7.8648 C   0  0  0  0  0
   24.0341    2.3381   -8.2118 C   0  0  0  0  0
   25.0131    2.2846   -7.2157 C   0  0  0  0  0
   24.6484    2.3943   -5.8707 C   0  0  0  0  0
   23.3046    2.5576   -5.5213 C   0  0  0  0  0
   22.3245    2.6115   -6.5166 C   0  0  0  0  0
   20.7712    3.7304  -10.8966 N   0  0  0  0  0
   22.2702    3.4372  -12.6588 O   0  0  0  0  0
   18.8242    4.3342  -12.8194 O   0  0  0  0  0
   21.0032    8.6391  -12.4146 F   0  0  0  0  0
   16.4066    8.1649  -11.2471 F   0  0  0  0  0
   19.1816   -3.1833   -6.3037 Cl  0  0  0  0  0
  2  1  1  0  0  0
  2 27  1  0  0  0
  2 13  1  0  0  0
  4  3  1  0  0  0
  4  5  1  0  0  0
  4  6  1  0  0  0
  4 29  1  0  0  0
  7 29  1  0  0  0
  8  9  1  0  0  0
  9 30  1  0  0  0
 10 11  1  0  0  0
 11 31  1  0  0  0
 12  7  1  0  0  0
 13 14  1  0  0  0
 13 21  1  0  0  0
 14 15  1  0  0  0
 16 17  1  0  0  0
 18 32  1  0  0  0
 18 19  1  0  0  0
 20 15  1  0  0  0
 22 23  1  0  0  0
 24 25  1  0  0  0
 26 21  1  0  0  0
 27  3  1  0  0  0
  3 28  2  0  0  0
  7  8  2  0  0  0
  9 10  2  0  0  0
 11 12  2  0  0  0
 15 16  2  0  0  0
 17 18  2  0  0  0
 19 20  2  0  0  0
 21 22  2  0  0  0
 23 24  2  0  0  0
 25 26  2  0  0  0
M  END
> <rmsd>
0.415148348

$$$$
CHEMBL2113251_5U09


 32 34  0  0  0  0  0  0  0  0999 V2000
   21.7527    5.0513   -9.1352 C   0  0  0  0  0
   21.8068    3.7308   -9.8847 C   0  0  0  0  0
   21.0705    3.6015  -12.2955 C   0  0  0  0  0
   19.9519    3.6062  -13.3050 C   0  0  0  0  0
   20.4196    4.1487  -14.6502 C   0  0  0  0  0
   19.4970    2.1756  -13.5138 C   0  0  0  0  0
   18.8431    5.7370  -12.5267 C   0  0  0  0  0
   17.6637    6.3297  -12.0628 C   0  0  0  0  0
   17.6336    7.6901  -11.7424 C   0  0  0  0  0
   18.7861    8.4674  -11.8845 C   0  0  0  0  0
   19.9687    7.8852  -12.3477 C   0  0  0  0  0
   19.9979    6.5253  -12.6678 C   0  0  0  0  0
   21.6072    2.5508   -8.9262 C   0  0  0  0  0
   21.5287    1.2262   -9.6897 C   0  0  0  0  0
   20.9631    0.1387   -8.8382 C   0  0  0  0  0
   21.7664   -0.9501   -8.4834 C   0  0  0  0  0
   21.2458   -1.9745   -7.6873 C   0  0  0  0  0
   19.9201   -1.9129   -7.2470 C   0  0  0  0  0
   19.1135   -0.8285   -7.6052 C   0  0  0  0  0
   19.6336    0.1963   -8.4012 C   0  0  0  0  0
   22.6813    2.4941   -7.8715 C   0  0  0  0  0
   22.3031    2.6098   -6.5289 C   0  0  0  0  0
   23.2647    2.5527   -5.5166 C   0  0  0  0  0
   24.6121    2.3784   -5.8416 C   0  0  0  0  0
   24.9992    2.2609   -7.1790 C   0  0  0  0  0
   24.0411    2.3175   -8.1955 C   0  0  0  0  0
   20.7686    3.7333  -10.9043 N   0  0  0  0  0
   22.2629    3.4187  -12.6665 O   0  0  0  0  0
   18.8328    4.3659  -12.8318 O   0  0  0  0  0
   18.7480   10.1706  -11.4835 Cl  0  0  0  0  0
   19.2691   -3.1956   -6.2503 Cl  0  0  0  0  0
   24.4382    2.1992   -9.4870 F   0  0  0  0  0
  2  1  1  0  0  0
  2 27  1  0  0  0
  2 13  1  0  0  0
  4  3  1  0  0  0
  4  5  1  0  0  0
  4  6  1  0  0  0
  4 29  1  0  0  0
  7 29  1  0  0  0
  8  9  1  0  0  0
 10 30  1  0  0  0
 10 11  1  0  0  0
 12  7  1  0  0  0
 13 14  1  0  0  0
 13 21  1  0  0  0
 14 15  1  0  0  0
 16 17  1  0  0  0
 18 31  1  0  0  0
 18 19  1  0  0  0
 20 15  1  0  0  0
 22 23  1  0  0  0
 24 25  1  0  0  0
 26 32  1  0  0  0
 26 21  1  0  0  0
 27  3  1  0  0  0
  3 28  2  0  0  0
  7  8  2  0  0  0
  9 10  2  0  0  0
 11 12  2  0  0  0
 15 16  2  0  0  0
 17 18  2  0  0  0
 19 20  2  0  0  0
 21 22  2  0  0  0
 23 24  2  0  0  0
 25 26  2  0  0  0
M  END
> <rmsd>
0.400995225

$$$$
