CHEMBL482741_5TGZ


 28 31  0  0  0  0  0  0  0  0999 V2000
   88.1252  129.0646  123.9299 C   0  0  0  0  0
   88.3267  130.5547  123.7178 C   0  0  0  0  0
   87.0922  131.1815  123.0932 C   0  0  0  0  0
   90.5355  131.6544  123.5400 C   0  0  0  0  0
   91.8210  130.8706  123.6866 C   0  0  0  0  0
   92.1983  130.7560  121.2379 C   0  0  0  0  0
   90.9200  130.4409  120.7922 C   0  0  0  0  0
   92.6302  130.1782  117.6990 C   0  0  0  0  0
   93.6725  129.2737  117.4455 C   0  0  0  0  0
   94.0687  128.9976  116.1350 C   0  0  0  0  0
   93.4218  129.6189  115.0651 C   0  0  0  0  0
   92.3782  130.5155  115.3055 C   0  0  0  0  0
   91.9743  130.7952  116.6149 C   0  0  0  0  0
   92.9981  130.7471  120.1103 C   0  0  0  0  0
   94.4365  131.0983  120.0635 C   0  0  0  0  0
   94.9894  131.7054  118.9262 C   0  0  0  0  0
   96.3421  132.0545  118.8944 C   0  0  0  0  0
   97.1531  131.8058  120.0043 C   0  0  0  0  0
   96.6103  131.2128  121.1468 C   0  0  0  0  0
   95.2573  130.8636  121.1767 C   0  0  0  0  0
   89.6626  130.3257  121.5633 C   0  0  0  0  0
   89.5221  130.8181  122.9159 N   0  0  0  0  0
   90.9703  130.2321  119.4606 N   0  0  0  0  0
   92.2163  130.4239  119.0516 N   0  0  0  0  0
   92.6295  131.0490  122.5350 O   0  0  0  0  0
   88.6758  129.7808  120.9975 O   0  0  0  0  0
   90.6797  131.9564  116.8606 Cl  0  0  0  0  0
   98.8474  132.2421  119.9654 Cl  0  0  0  0  0
  1  2  1  0  0  0
  2  3  1  0  0  0
  2 22  1  0  0  0
  4 22  1  0  0  0
  4  5  1  0  0  0
  5 25  1  0  0  0
  6 25  1  0  0  0
  6  7  1  0  0  0
  7 21  1  0  0  0
  9 10  1  0  0  0
 11 12  1  0  0  0
 13 27  1  0  0  0
 13  8  1  0  0  0
 14 15  1  0  0  0
 16 17  1  0  0  0
 18 28  1  0  0  0
 18 19  1  0  0  0
 20 15  1  0  0  0
 21 22  1  0  0  0
 24 23  1  0  0  0
 24  8  1  0  0  0
 24 14  1  0  0  0
  7 23  2  0  0  0
  8  9  2  0  0  0
 10 11  2  0  0  0
 12 13  2  0  0  0
 14  6  2  0  0  0
 15 16  2  0  0  0
 17 18  2  0  0  0
 19 20  2  0  0  0
 21 26  2  0  0  0
M  END
> <rmsd>
0.739627182

$$$$
CHEMBL520345_5TGZ


 31 34  0  0  0  0  0  0  0  0999 V2000
   88.4003  131.1122  126.6029 C   0  0  0  0  0
   88.5523  130.0049  125.5717 C   0  0  0  0  0
   87.7811  130.3087  124.2890 C   0  0  0  0  0
   88.3439  131.5358  123.5650 C   0  0  0  0  0
   90.8177  131.2130  123.7636 C   0  0  0  0  0
   91.7755  132.3082  123.3481 C   0  0  0  0  0
   92.2342  131.2665  121.1452 C   0  0  0  0  0
   90.9442  130.9413  120.7448 C   0  0  0  0  0
   92.6652  129.9282  117.8183 C   0  0  0  0  0
   93.6233  128.9033  117.7856 C   0  0  0  0  0
   94.0117  128.3350  116.5704 C   0  0  0  0  0
   93.4403  128.7816  115.3771 C   0  0  0  0  0
   92.4800  129.7958  115.3989 C   0  0  0  0  0
   92.0845  130.3686  116.6121 C   0  0  0  0  0
   93.0477  130.9520  120.0726 C   0  0  0  0  0
   94.5096  131.1838  119.9957 C   0  0  0  0  0
   95.2901  131.1581  121.1611 C   0  0  0  0  0
   96.6663  131.3939  121.0989 C   0  0  0  0  0
   97.2736  131.6635  119.8702 C   0  0  0  0  0
   96.5047  131.7012  118.7046 C   0  0  0  0  0
   95.1287  131.4664  118.7688 C   0  0  0  0  0
   89.6767  131.0582  121.4978 C   0  0  0  0  0
   86.4526  130.5426  124.5959 F   0  0  0  0  0
   87.8471  129.2065  123.4555 F   0  0  0  0  0
   89.6275  131.2549  122.9247 N   0  0  0  0  0
   90.9935  130.4669  119.4834 N   0  0  0  0  0
   92.2560  130.4772  119.0801 N   0  0  0  0  0
   92.6633  131.8216  122.3543 O   0  0  0  0  0
   88.5967  130.9589  120.8535 O   0  0  0  0  0
   90.8977  131.6625  116.5801 Cl  0  0  0  0  0
   98.9974  131.9548  119.7905 Cl  0  0  0  0  0
  1  2  1  0  0  0
  2  3  1  0  0  0
  3 23  1  0  0  0
  3 24  1  0  0  0
  3  4  1  0  0  0
  4 25  1  0  0  0
  5 25  1  0  0  0
  5  6  1  0  0  0
  6 28  1  0  0  0
  7 28  1  0  0  0
  7  8  1  0  0  0
  8 22  1  0  0  0
 10 11  1  0  0  0
 12 13  1  0  0  0
 14 30  1  0  0  0
 14  9  1  0  0  0
 15 16  1  0  0  0
 17 18  1  0  0  0
 19 31  1  0  0  0
 19 20  1  0  0  0
 21 16  1  0  0  0
 22 25  1  0  0  0
 27 26  1  0  0  0
 27  9  1  0  0  0
 27 15  1  0  0  0
  8 26  2  0  0  0
  9 10  2  0  0  0
 11 12  2  0  0  0
 13 14  2  0  0  0
 15  7  2  0  0  0
 16 17  2  0  0  0
 18 19  2  0  0  0
 20 21  2  0  0  0
 22 29  2  0  0  0
M  END
> <rmsd>
0.745000422

$$$$
CHEMBL244403_8GHV


 28 31  0  0  0  0  0  0  0  0999 V2000
   87.5183  130.0385  125.3734 C   0  0  0  0  0
   87.8913  130.1185  123.9084 C   0  0  0  0  0
   87.1009  131.2311  123.2456 C   0  0  0  0  0
   87.4644  131.3352  121.7754 C   0  0  0  0  0
   88.8218  131.9928  121.6119 C   0  0  0  0  0
   90.3006  131.4149  119.7096 C   0  0  0  0  0
   91.1709  130.6963  120.5391 C   0  0  0  0  0
   92.3011  130.0738  120.0139 C   0  0  0  0  0
   92.5998  130.1508  118.6469 C   0  0  0  0  0
   93.8098  129.4466  118.1488 C   0  0  0  0  0
   95.0326  129.3135  118.9764 C   0  0  0  0  0
   95.5985  130.3953  119.6954 C   0  0  0  0  0
   95.0540  131.6887  119.6362 C   0  0  0  0  0
   95.6345  132.7395  120.3507 C   0  0  0  0  0
   96.7722  132.5136  121.1283 C   0  0  0  0  0
   97.3379  131.2380  121.1877 C   0  0  0  0  0
   96.7648  130.1817  120.4738 C   0  0  0  0  0
   97.3581  128.9194  120.5183 C   0  0  0  0  0
   96.8100  127.8626  119.7921 C   0  0  0  0  0
   95.6605  128.0607  119.0253 C   0  0  0  0  0
   91.7295  130.8728  117.7949 C   0  0  0  0  0
   91.9911  131.0007  116.4206 C   0  0  0  0  0
   91.1304  131.7243  115.5930 C   0  0  0  0  0
   89.9963  132.3358  116.1279 C   0  0  0  0  0
   89.7223  132.2282  117.4922 C   0  0  0  0  0
   90.5780  131.5057  118.3358 C   0  0  0  0  0
   89.1621  132.0416  120.2330 O   0  0  0  0  0
   93.7829  128.8899  117.0174 O   0  0  0  0  0
  1  2  1  0  0  0
  2  3  1  0  0  0
  3  4  1  0  0  0
  4  5  1  0  0  0
  5 27  1  0  0  0
  6 27  1  0  0  0
  7  8  1  0  0  0
  9 10  1  0  0  0
  9 21  1  0  0  0
 10 11  1  0  0  0
 11 12  1  0  0  0
 13 14  1  0  0  0
 15 16  1  0  0  0
 17 18  1  0  0  0
 17 12  1  0  0  0
 19 20  1  0  0  0
 22 23  1  0  0  0
 24 25  1  0  0  0
 26  6  1  0  0  0
 26 21  1  0  0  0
  6  7  2  0  0  0
  8  9  2  0  0  0
 10 28  2  0  0  0
 12 13  2  0  0  0
 14 15  2  0  0  0
 16 17  2  0  0  0
 18 19  2  0  0  0
 20 11  2  0  0  0
 21 22  2  0  0  0
 23 24  2  0  0  0
 25 26  2  0  0  0
M  END
> <rmsd>
0.477663368

$$$$
CHEMBL1828801_6N4B


 28 31  0  0  0  0  0  0  0  0999 V2000
   86.8050  130.3710  123.7083 C   0  0  0  0  0
   88.2735  130.2346  123.3533 C   0  0  0  0  0
   88.6746  131.2925  122.3366 C   0  0  0  0  0
   88.1370  130.9632  120.9492 C   0  0  0  0  0
   88.8869  129.7901  120.3285 C   0  0  0  0  0
   91.3626  129.6289  120.5901 C   0  0  0  0  0
   92.5000  130.2031  120.0222 C   0  0  0  0  0
   93.8926  129.8564  120.3681 C   0  0  0  0  0
   95.0267  130.7299  120.0064 C   0  0  0  0  0
   94.9758  132.0718  120.4117 C   0  0  0  0  0
   96.0536  132.9279  120.1866 C   0  0  0  0  0
   97.2042  132.4486  119.5636 C   0  0  0  0  0
   97.2724  131.1160  119.1556 C   0  0  0  0  0
   96.1936  130.2403  119.3607 C   0  0  0  0  0
   96.3123  128.8543  118.8459 C   0  0  0  0  0
   97.5387  128.1755  118.9288 C   0  0  0  0  0
   97.6697  126.8813  118.4171 C   0  0  0  0  0
   96.5783  126.2568  117.8085 C   0  0  0  0  0
   95.3573  126.9278  117.7073 C   0  0  0  0  0
   95.2267  128.2218  118.2187 C   0  0  0  0  0
   92.0485  131.0896  119.0574 C   0  0  0  0  0
   92.7352  131.8924  118.1461 C   0  0  0  0  0
   91.9744  132.6700  117.2558 C   0  0  0  0  0
   90.5645  132.6216  117.2863 C   0  0  0  0  0
   89.8981  131.7925  118.2056 C   0  0  0  0  0
   90.6795  131.0366  119.0813 C   0  0  0  0  0
   90.2608  130.1608  120.0131 N   0  0  0  0  0
   94.1176  128.7972  121.0137 O   0  0  0  0  0
  1  2  1  0  0  0
  2  3  1  0  0  0
  3  4  1  0  0  0
  4  5  1  0  0  0
  5 27  1  0  0  0
  7  8  1  0  0  0
  7 21  1  0  0  0
  8  9  1  0  0  0
 10 11  1  0  0  0
 12 13  1  0  0  0
 14 15  1  0  0  0
 14  9  1  0  0  0
 16 17  1  0  0  0
 18 19  1  0  0  0
 20 15  1  0  0  0
 22 23  1  0  0  0
 24 25  1  0  0  0
 26 27  1  0  0  0
 26 21  1  0  0  0
 27  6  1  0  0  0
  6  7  2  0  0  0
  8 28  2  0  0  0
  9 10  2  0  0  0
 11 12  2  0  0  0
 13 14  2  0  0  0
 15 16  2  0  0  0
 17 18  2  0  0  0
 19 20  2  0  0  0
 21 22  2  0  0  0
 23 24  2  0  0  0
 25 26  2  0  0  0
M  END
> <rmsd>
0.721224785

$$$$
CHEMBL1828812_6N4B


 26 29  0  0  0  0  0  0  0  0999 V2000
   94.1028  130.9997  118.5419 C   0  0  0  0  0
   92.6459  131.0915  118.7883 C   0  0  0  0  0
   91.6375  131.1130  117.8406 C   0  0  0  0  0
   91.6680  131.0845  116.4495 C   0  0  0  0  0
   89.2756  131.1626  116.4386 C   0  0  0  0  0
   89.2291  131.1908  117.8435 C   0  0  0  0  0
   90.4507  131.1654  118.5139 C   0  0  0  0  0
   92.0064  131.1219  120.0303 C   0  0  0  0  0
   89.6625  131.1854  120.8922 C   0  0  0  0  0
   89.2825  129.7594  121.2556 C   0  0  0  0  0
   88.2459  129.7544  122.3644 C   0  0  0  0  0
   88.8941  130.0822  123.6963 C   0  0  0  0  0
   87.8415  130.0777  124.7842 C   0  0  0  0  0
   95.0958  131.1463  119.6393 C   0  0  0  0  0
   94.8286  132.0543  120.6761 C   0  0  0  0  0
   95.7387  132.2538  121.7150 C   0  0  0  0  0
   96.9406  131.5489  121.7368 C   0  0  0  0  0
   97.2373  130.6405  120.7207 C   0  0  0  0  0
   98.4434  129.9349  120.7598 C   0  0  0  0  0
   98.7497  129.0124  119.7572 C   0  0  0  0  0
   97.8503  128.7896  118.7127 C   0  0  0  0  0
   96.6429  129.4911  118.6655 C   0  0  0  0  0
   96.3191  130.4294  119.6597 C   0  0  0  0  0
   94.5076  130.8019  117.3644 O   0  0  0  0  0
   90.4769  131.1111  115.7812 N   0  0  0  0  0
   90.6673  131.1786  119.8404 N   0  0  0  0  0
  1  2  1  0  0  0
  1 14  1  0  0  0
  2  3  1  0  0  0
  4 25  1  0  0  0
  5  6  1  0  0  0
  7 26  1  0  0  0
  7  3  1  0  0  0
  9 26  1  0  0  0
  9 10  1  0  0  0
 10 11  1  0  0  0
 11 12  1  0  0  0
 12 13  1  0  0  0
 15 16  1  0  0  0
 17 18  1  0  0  0
 19 20  1  0  0  0
 21 22  1  0  0  0
 23 14  1  0  0  0
 23 18  1  0  0  0
 26  8  1  0  0  0
  1 24  2  0  0  0
  3  4  2  0  0  0
  5 25  2  0  0  0
  6  7  2  0  0  0
  8  2  2  0  0  0
 14 15  2  0  0  0
 16 17  2  0  0  0
 18 19  2  0  0  0
 20 21  2  0  0  0
 22 23  2  0  0  0
M  END
> <rmsd>
0.577686667

$$$$
CHEMBL1828809_6N4B


 26 29  0  0  0  0  0  0  0  0999 V2000
   93.8281  129.8792  120.4262 C   0  0  0  0  0
   92.4562  130.2545  120.0290 C   0  0  0  0  0
   92.0555  131.0735  118.9849 C   0  0  0  0  0
   90.6906  131.0791  118.9978 C   0  0  0  0  0
   90.6090  132.4838  117.1207 C   0  0  0  0  0
   92.0201  132.4950  117.0638 C   0  0  0  0  0
   92.7651  131.7710  118.0105 C   0  0  0  0  0
   91.2847  129.7812  120.6272 C   0  0  0  0  0
   88.8170  130.0670  120.3187 C   0  0  0  0  0
   88.2594  131.2246  121.1380 C   0  0  0  0  0
   88.8581  131.2540  122.5390 C   0  0  0  0  0
   88.3182  130.1205  123.3977 C   0  0  0  0  0
   86.8910  130.4109  123.8219 C   0  0  0  0  0
   94.9997  130.7241  120.0982 C   0  0  0  0  0
   94.9018  132.1113  120.2848 C   0  0  0  0  0
   95.9862  132.9498  120.0219 C   0  0  0  0  0
   97.1929  132.4140  119.5728 C   0  0  0  0  0
   97.3206  131.0371  119.3852 C   0  0  0  0  0
   98.5339  130.5123  118.9311 C   0  0  0  0  0
   98.6721  129.1368  118.7306 C   0  0  0  0  0
   97.5973  128.2809  118.9813 C   0  0  0  0  0
   96.3809  128.7969  119.4359 C   0  0  0  0  0
   96.2250  130.1763  119.6496 C   0  0  0  0  0
   93.9980  128.8215  121.0910 O   0  0  0  0  0
   89.9581  131.7698  118.0873 N   0  0  0  0  0
   90.2140  130.3027  119.9832 N   0  0  0  0  0
  1  2  1  0  0  0
  1 14  1  0  0  0
  2  3  1  0  0  0
  3  4  1  0  0  0
  4 26  1  0  0  0
  5 25  1  0  0  0
  6  7  1  0  0  0
  9 26  1  0  0  0
  9 10  1  0  0  0
 10 11  1  0  0  0
 11 12  1  0  0  0
 12 13  1  0  0  0
 15 16  1  0  0  0
 17 18  1  0  0  0
 19 20  1  0  0  0
 21 22  1  0  0  0
 23 14  1  0  0  0
 23 18  1  0  0  0
 26  8  1  0  0  0
  1 24  2  0  0  0
  4 25  2  0  0  0
  5  6  2  0  0  0
  7  3  2  0  0  0
  8  2  2  0  0  0
 14 15  2  0  0  0
 16 17  2  0  0  0
 18 19  2  0  0  0
 20 21  2  0  0  0
 22 23  2  0  0  0
M  END
> <rmsd>
0.635353148

$$$$
CHEMBL3959009_6N4B


 36 40  0  0  0  0  0  0  0  0999 V2000
   88.9559  132.3224  123.6176 C   0  0  0  0  0
   89.8383  131.7764  121.3030 C   0  0  0  0  0
   90.9958  131.5124  120.4351 C   0  0  0  0  0
   94.4975  131.2675  119.9641 C   0  0  0  0  0
   95.1079  130.9574  121.1884 C   0  0  0  0  0
   96.4986  131.0092  121.3197 C   0  0  0  0  0
   97.2899  131.3827  120.2305 C   0  0  0  0  0
   96.6908  131.7152  119.0131 C   0  0  0  0  0
   95.3004  131.6639  118.8824 C   0  0  0  0  0
   92.3078  130.9880  118.7564 C   0  0  0  0  0
   90.9777  131.1729  119.0919 C   0  0  0  0  0
   89.7755  130.8601  118.2551 C   0  0  0  0  0
   89.8615  131.5106  116.8829 C   0  0  0  0  0
   90.7876  130.7233  115.9678 C   0  0  0  0  0
   92.2463  131.0970  116.1973 C   0  0  0  0  0
   92.7930  130.4852  117.4539 C   0  0  0  0  0
   93.6997  129.4963  117.4404 C   0  0  0  0  0
   94.3336  128.8433  116.2769 C   0  0  0  0  0
   95.2675  127.8307  116.5265 C   0  0  0  0  0
   95.9100  127.1801  115.4687 C   0  0  0  0  0
   95.6215  127.5396  114.1496 C   0  0  0  0  0
   94.6922  128.5501  113.8889 C   0  0  0  0  0
   94.0513  129.1987  114.9482 C   0  0  0  0  0
   88.2193  131.0513  123.8987 C   0  0  0  0  0
   86.8534  130.9699  123.6145 C   0  0  0  0  0
   86.1730  129.7777  123.8680 C   0  0  0  0  0
   86.8594  128.6837  124.3977 C   0  0  0  0  0
   88.2245  128.8016  124.6682 C   0  0  0  0  0
   89.5072  132.9014  124.9063 C   0  0  0  0  0
   90.0490  132.0842  122.6842 N   0  0  0  0  0
   92.2707  131.5552  120.8694 N   0  0  0  0  0
   93.0639  131.2443  119.8541 N   0  0  0  0  0
   88.8714  129.9711  124.4150 N   0  0  0  0  0
   88.6688  131.7399  120.8335 O   0  0  0  0  0
   99.0311  131.4415  120.3935 Cl  0  0  0  0  0
   96.2448  126.9112  113.1241 F   0  0  0  0  0
  1 30  1  0  0  0
  1 24  1  0  0  0
  1 29  1  0  0  0
  2  3  1  0  0  0
  5  6  1  0  0  0
  7  8  1  0  0  0
  7 35  1  0  0  0
  9  4  1  0  0  0
 11  3  1  0  0  0
 12 11  1  0  0  0
 12 13  1  0  0  0
 13 14  1  0  0  0
 14 15  1  0  0  0
 15 16  1  0  0  0
 16 10  1  0  0  0
 17 18  1  0  0  0
 19 20  1  0  0  0
 21 22  1  0  0  0
 21 36  1  0  0  0
 23 18  1  0  0  0
 24 33  1  0  0  0
 25 26  1  0  0  0
 27 28  1  0  0  0
 30  2  1  0  0  0
 32 31  1  0  0  0
 32  4  1  0  0  0
 32 10  1  0  0  0
  2 34  2  0  0  0
  3 31  2  0  0  0
  4  5  2  0  0  0
  6  7  2  0  0  0
  8  9  2  0  0  0
 10 11  2  0  0  0
 16 17  2  0  0  0
 18 19  2  0  0  0
 20 21  2  0  0  0
 22 23  2  0  0  0
 24 25  2  0  0  0
 26 27  2  0  0  0
 28 33  2  0  0  0
M  END
> <rmsd>
0.688027084

$$$$
CHEMBL271782_5TGZ


 31 34  0  0  0  0  0  0  0  0999 V2000
   92.4027  130.3432  118.8249 N   0  0  0  0  0
   91.1284  130.1430  119.1272 N   0  0  0  0  0
   94.4495  131.1416  119.9648 N   0  0  0  0  0
   89.5470  130.6748  122.5063 N   0  0  0  0  0
   90.9595  130.4395  120.4338 C   0  0  0  0  0
   92.1728  130.8396  120.9774 C   0  0  0  0  0
   93.0613  130.7680  119.9247 C   0  0  0  0  0
   95.0651  132.0677  119.2051 C   0  0  0  0  0
   96.4019  132.1711  119.5382 C   0  0  0  0  0
   96.6157  131.2529  120.5573 C   0  0  0  0  0
   95.3934  130.6536  120.7925 C   0  0  0  0  0
   95.1709  129.5744  121.7972 C   0  0  0  0  0
   94.3877  132.9371  118.2022 C   0  0  0  0  0
   92.4487  131.3335  122.3573 C   0  0  0  0  0
   89.6602  130.3488  121.1184 C   0  0  0  0  0
   88.2944  130.5735  123.2394 C   0  0  0  0  0
   88.4210  131.3243  124.5623 C   0  0  0  0  0
   87.1225  131.2141  125.3570 C   0  0  0  0  0
   86.7876  129.7479  125.6175 C   0  0  0  0  0
   86.6625  128.9936  124.2965 C   0  0  0  0  0
   87.9612  129.1046  123.5028 C   0  0  0  0  0
   92.9462  130.1134  117.5163 C   0  0  0  0  0
   92.4743  130.8565  116.4153 C   0  0  0  0  0
   93.0129  130.6438  115.1439 C   0  0  0  0  0
   94.0074  129.6847  114.9522 C   0  0  0  0  0
   94.4606  128.9248  116.0305 C   0  0  0  0  0
   93.9363  129.1302  117.3093 C   0  0  0  0  0
   88.6425  129.9820  120.4708 O   0  0  0  0  0
   94.4892  128.0846  118.6066 Cl  0  0  0  0  0
   94.6753  129.4241  113.3560 Cl  0  0  0  0  0
   91.2403  132.0925  116.6023 Cl  0  0  0  0  0
  1  2  1  0  0  0
  1 22  1  0  0  0
  3  8  1  0  0  0
  5  6  1  0  0  0
  5 15  1  0  0  0
  7  3  1  0  0  0
  7  1  1  0  0  0
  9 10  1  0  0  0
 11  3  1  0  0  0
 12 11  1  0  0  0
 13  8  1  0  0  0
 14  6  1  0  0  0
 15  4  1  0  0  0
 16  4  1  0  0  0
 16 17  1  0  0  0
 17 18  1  0  0  0
 18 19  1  0  0  0
 19 20  1  0  0  0
 20 21  1  0  0  0
 21 16  1  0  0  0
 23 24  1  0  0  0
 23 31  1  0  0  0
 25 26  1  0  0  0
 25 30  1  0  0  0
 27 29  1  0  0  0
 27 22  1  0  0  0
  5  2  2  0  0  0
  6  7  2  0  0  0
  8  9  2  0  0  0
 10 11  2  0  0  0
 15 28  2  0  0  0
 22 23  2  0  0  0
 24 25  2  0  0  0
 26 27  2  0  0  0
M  END
> <rmsd>
0.679791152

$$$$
CHEMBL3260755_5U09


 35 39  0  0  0  0  0  0  0  0999 V2000
   90.9395  132.7188  113.9947 C   0  0  0  0  0
   92.0706  131.9244  114.6272 C   0  0  0  0  0
   90.9118  131.5428  117.9728 C   0  0  0  0  0
   90.0252  131.6392  119.0447 C   0  0  0  0  0
   88.7080  132.2859  118.8548 C   0  0  0  0  0
   87.5267  131.5873  119.1456 C   0  0  0  0  0
   86.2826  132.1929  118.9492 C   0  0  0  0  0
   86.2114  133.4980  118.4547 C   0  0  0  0  0
   87.3835  134.1962  118.1519 C   0  0  0  0  0
   88.6280  133.5913  118.3486 C   0  0  0  0  0
   90.4247  131.0283  120.2673 C   0  0  0  0  0
   89.5942  131.1457  121.4939 C   0  0  0  0  0
   88.9087  132.2710  121.9259 C   0  0  0  0  0
   88.1379  130.0377  124.5854 C   0  0  0  0  0
   89.3919  130.1678  122.4502 C   0  0  0  0  0
   91.6717  130.3407  120.3237 C   0  0  0  0  0
   93.7815  129.6152  119.2794 C   0  0  0  0  0
   94.8186  130.5344  119.8359 C   0  0  0  0  0
   95.3927  131.5228  119.0282 C   0  0  0  0  0
   96.3481  132.3945  119.5593 C   0  0  0  0  0
   96.7290  132.2814  120.9000 C   0  0  0  0  0
   97.7095  133.1764  121.4457 C   0  0  0  0  0
   96.1532  131.2972  121.7096 C   0  0  0  0  0
   95.1977  130.4256  121.1782 C   0  0  0  0  0
   92.6216  130.9613  116.8713 C   0  0  0  0  0
   91.8142  131.6460  116.0382 N   0  0  0  0  0
   90.7301  132.0132  116.7174 N   0  0  0  0  0
   88.3095  131.9678  123.0931 N   0  0  0  0  0
   88.6054  130.7147  123.3908 N   0  0  0  0  0
   92.4817  130.2865  119.2174 N   0  0  0  0  0
   98.5002  133.8981  121.8856 N   0  0  0  0  0
   92.0735  130.8881  118.0972 N   0  0  0  0  0
   84.6535  134.2565  118.2095 Cl  0  0  0  0  0
   92.0430  129.7933  121.3994 O   0  0  0  0  0
   93.7228  130.4474  116.5362 O   0  0  0  0  0
  1  2  1  0  0  0
  2 26  1  0  0  0
  3  4  1  0  0  0
  4  5  1  0  0  0
  6  7  1  0  0  0
  8 33  1  0  0  0
  8  9  1  0  0  0
 10  5  1  0  0  0
 11 12  1  0  0  0
 11 16  1  0  0  0
 12 13  1  0  0  0
 14 29  1  0  0  0
 16 30  1  0  0  0
 17 30  1  0  0  0
 17 18  1  0  0  0
 19 20  1  0  0  0
 21 22  1  0  0  0
 21 23  1  0  0  0
 24 18  1  0  0  0
 25 26  1  0  0  0
 26 27  1  0  0  0
 29 28  1  0  0  0
 29 15  1  0  0  0
 30 32  1  0  0  0
 32 25  1  0  0  0
 32  3  1  0  0  0
  3 27  2  0  0  0
  4 11  2  0  0  0
  5  6  2  0  0  0
  7  8  2  0  0  0
  9 10  2  0  0  0
 13 28  2  0  0  0
 15 12  2  0  0  0
 16 34  2  0  0  0
 18 19  2  0  0  0
 20 21  2  0  0  0
 23 24  2  0  0  0
 25 35  2  0  0  0
 22 31  3  0  0  0
M  END
> <rmsd>
0.290361851

$$$$
CHEMBL3260744_5U09


 39 43  0  0  0  0  0  0  0  0999 V2000
   88.1198  129.4944  115.2734 C   0  0  0  0  0
   89.2449  130.4506  114.9235 C   0  0  0  0  0
   91.7153  130.8348  117.4384 C   0  0  0  0  0
   92.9727  130.7046  118.0298 C   0  0  0  0  0
   94.0539  129.9515  117.3473 C   0  0  0  0  0
   94.3257  130.1763  115.9891 C   0  0  0  0  0
   95.3419  129.4668  115.3434 C   0  0  0  0  0
   96.0934  128.5245  116.0500 C   0  0  0  0  0
   95.8261  128.2881  117.4007 C   0  0  0  0  0
   94.8094  128.9972  118.0458 C   0  0  0  0  0
   93.1415  131.3156  119.3028 C   0  0  0  0  0
   94.4556  131.3077  119.9893 C   0  0  0  0  0
   94.5963  130.5718  121.1715 C   0  0  0  0  0
   95.8283  130.5451  121.8260 C   0  0  0  0  0
   96.7768  131.9644  120.1778 C   0  0  0  0  0
   95.5633  132.0209  119.4884 C   0  0  0  0  0
   95.4751  132.8584  118.2572 C   0  0  0  0  0
   92.0450  131.9827  119.9126 C   0  0  0  0  0
   89.6715  132.6849  119.9038 C   0  0  0  0  0
   89.2340  131.9800  121.1563 C   0  0  0  0  0
   89.4146  132.6296  122.3795 C   0  0  0  0  0
   89.0271  132.0129  123.5680 C   0  0  0  0  0
   88.4471  130.7416  123.5242 C   0  0  0  0  0
   88.0570  130.0499  124.7949 C   0  0  0  0  0
   88.6513  130.6975  121.1500 C   0  0  0  0  0
   88.4200  129.9476  119.8839 C   0  0  0  0  0
   89.6915  131.4081  117.2058 C   0  0  0  0  0
   90.0550  130.7273  116.1004 N   0  0  0  0  0
   91.3261  130.3633  116.2309 N   0  0  0  0  0
   96.8849  131.2337  121.3191 N   0  0  0  0  0
   90.8252  132.0244  119.2832 N   0  0  0  0  0
   88.2832  130.1182  122.3247 N   0  0  0  0  0
   90.7206  131.4764  118.0690 N   0  0  0  0  0
   97.3672  127.6374  115.2421 Cl  0  0  0  0  0
   92.2016  132.5510  121.0294 O   0  0  0  0  0
   88.5533  131.9177  117.3900 O   0  0  0  0  0
   87.2637  128.9494  124.5220 F   0  0  0  0  0
   89.1953  129.6310  125.4584 F   0  0  0  0  0
   87.3500  130.9180  125.6077 F   0  0  0  0  0
  1  2  1  0  0  0
  2 28  1  0  0  0
  3  4  1  0  0  0
  4  5  1  0  0  0
  6  7  1  0  0  0
  8 34  1  0  0  0
  8  9  1  0  0  0
 10  5  1  0  0  0
 11 12  1  0  0  0
 11 18  1  0  0  0
 13 14  1  0  0  0
 15 30  1  0  0  0
 16 12  1  0  0  0
 17 16  1  0  0  0
 18 31  1  0  0  0
 19 31  1  0  0  0
 19 20  1  0  0  0
 21 22  1  0  0  0
 23 32  1  0  0  0
 24 23  1  0  0  0
 24 37  1  0  0  0
 24 38  1  0  0  0
 24 39  1  0  0  0
 25 20  1  0  0  0
 26 25  1  0  0  0
 27 28  1  0  0  0
 28 29  1  0  0  0
 31 33  1  0  0  0
 33 27  1  0  0  0
 33  3  1  0  0  0
  3 29  2  0  0  0
  4 11  2  0  0  0
  5  6  2  0  0  0
  7  8  2  0  0  0
  9 10  2  0  0  0
 12 13  2  0  0  0
 14 30  2  0  0  0
 15 16  2  0  0  0
 18 35  2  0  0  0
 20 21  2  0  0  0
 22 23  2  0  0  0
 25 32  2  0  0  0
 27 36  2  0  0  0
M  END
> <rmsd>
0.820209324

$$$$
CHEMBL3260753_5U09


 39 43  0  0  0  0  0  0  0  0999 V2000
   92.4348  133.4971  114.2603 C   0  0  0  0  0
   91.4763  132.3367  114.4540 C   0  0  0  0  0
   90.8085  131.4915  117.8324 C   0  0  0  0  0
   90.0319  131.3241  118.9787 C   0  0  0  0  0
   88.6119  131.7485  118.9849 C   0  0  0  0  0
   88.2584  133.0399  118.5667 C   0  0  0  0  0
   86.9189  133.4391  118.5618 C   0  0  0  0  0
   85.9230  132.5485  118.9712 C   0  0  0  0  0
   86.2652  131.2573  119.3808 C   0  0  0  0  0
   87.6042  130.8577  119.3852 C   0  0  0  0  0
   90.6533  130.6775  120.0835 C   0  0  0  0  0
   89.9390  130.5070  121.3716 C   0  0  0  0  0
   89.8271  129.2502  121.9731 C   0  0  0  0  0
   88.6175  130.1933  123.7708 C   0  0  0  0  0
   87.9031  130.0235  125.0627 C   0  0  0  0  0
   89.3669  131.6013  122.0277 C   0  0  0  0  0
   91.9998  130.2316  119.9639 C   0  0  0  0  0
   94.0957  130.0169  118.6641 C   0  0  0  0  0
   95.0092  130.7675  119.5911 C   0  0  0  0  0
   95.6061  130.0679  120.6423 C   0  0  0  0  0
   96.4576  130.7233  121.5303 C   0  0  0  0  0
   96.7048  132.0891  121.3627 C   0  0  0  0  0
   97.6447  132.8018  122.2868 C   0  0  0  0  0
   95.2972  132.1382  119.4399 C   0  0  0  0  0
   94.7187  132.9430  118.3281 C   0  0  0  0  0
   92.4681  131.3235  116.5310 C   0  0  0  0  0
   91.4691  131.9171  115.8475 N   0  0  0  0  0
   90.4148  132.0182  116.6494 N   0  0  0  0  0
   89.1710  129.1161  123.1549 N   0  0  0  0  0
   88.7185  131.4258  123.2082 N   0  0  0  0  0
   92.7014  130.4524  118.8037 N   0  0  0  0  0
   96.1321  132.7529  120.3207 N   0  0  0  0  0
   92.0758  131.0563  117.7895 N   0  0  0  0  0
   84.2461  133.0491  118.9667 Cl  0  0  0  0  0
   92.5535  129.6419  120.9336 O   0  0  0  0  0
   93.5959  131.0383  116.0452 O   0  0  0  0  0
   97.5076  134.1721  122.1512 F   0  0  0  0  0
   97.3733  132.4550  123.5984 F   0  0  0  0  0
   98.9456  132.4467  121.9823 F   0  0  0  0  0
  1  2  1  0  0  0
  2 27  1  0  0  0
  3  4  1  0  0  0
  4  5  1  0  0  0
  6  7  1  0  0  0
  8 34  1  0  0  0
  8  9  1  0  0  0
 10  5  1  0  0  0
 11 12  1  0  0  0
 11 17  1  0  0  0
 13 29  1  0  0  0
 14 30  1  0  0  0
 15 14  1  0  0  0
 16 12  1  0  0  0
 17 31  1  0  0  0
 18 31  1  0  0  0
 18 19  1  0  0  0
 20 21  1  0  0  0
 22 32  1  0  0  0
 23 22  1  0  0  0
 23 37  1  0  0  0
 23 38  1  0  0  0
 23 39  1  0  0  0
 24 19  1  0  0  0
 25 24  1  0  0  0
 26 27  1  0  0  0
 27 28  1  0  0  0
 31 33  1  0  0  0
 33 26  1  0  0  0
 33  3  1  0  0  0
  3 28  2  0  0  0
  4 11  2  0  0  0
  5  6  2  0  0  0
  7  8  2  0  0  0
  9 10  2  0  0  0
 12 13  2  0  0  0
 14 29  2  0  0  0
 16 30  2  0  0  0
 17 35  2  0  0  0
 19 20  2  0  0  0
 21 22  2  0  0  0
 24 32  2  0  0  0
 26 36  2  0  0  0
M  END
> <rmsd>
0.510613501

$$$$
CHEMBL3923909_6N4B


 38 43  0  0  0  0  0  0  0  0999 V2000
   88.6962  130.3256  124.7389 C   0  0  0  0  0
   88.3641  130.6936  123.3107 C   0  0  0  0  0
   88.0173  129.3154  123.8219 C   0  0  0  0  0
   89.4751  130.7882  121.0272 C   0  0  0  0  0
   90.7178  130.8954  120.2478 C   0  0  0  0  0
   94.2500  131.1790  120.1127 C   0  0  0  0  0
   94.7766  130.7370  121.3334 C   0  0  0  0  0
   96.1380  130.8830  121.6135 C   0  0  0  0  0
   96.9895  131.4776  120.6796 C   0  0  0  0  0
   96.4691  131.9407  119.4602 C   0  0  0  0  0
   95.1067  131.7944  119.1883 C   0  0  0  0  0
   92.2096  131.0321  118.6458 C   0  0  0  0  0
   90.8413  130.9410  118.8676 C   0  0  0  0  0
   89.7161  130.8771  117.8652 C   0  0  0  0  0
   90.1628  130.8567  116.4063 C   0  0  0  0  0
   90.9483  132.1203  116.0810 C   0  0  0  0  0
   92.4612  131.9380  116.2468 C   0  0  0  0  0
   92.8635  130.9652  117.3244 C   0  0  0  0  0
   93.7345  129.9701  117.1032 C   0  0  0  0  0
   94.5124  129.6859  115.8808 C   0  0  0  0  0
   95.2433  128.4949  115.8350 C   0  0  0  0  0
   96.0146  128.1783  114.7133 C   0  0  0  0  0
   96.0609  129.0567  113.6270 C   0  0  0  0  0
   95.3413  130.2520  113.6657 C   0  0  0  0  0
   94.5714  130.5662  114.7888 C   0  0  0  0  0
   87.2773  131.7086  123.1544 C   0  0  0  0  0
   87.4458  133.0060  123.6513 C   0  0  0  0  0
   86.4283  133.9447  123.4721 C   0  0  0  0  0
   85.2608  133.5842  122.7970 C   0  0  0  0  0
   85.1307  132.2825  122.3087 C   0  0  0  0  0
   89.5407  130.7750  122.4552 N   0  0  0  0  0
   91.9401  130.9567  120.8135 N   0  0  0  0  0
   92.8422  131.0402  119.8466 N   0  0  0  0  0
   86.1322  131.3808  122.4935 N   0  0  0  0  0
   88.3624  130.6992  120.4414 O   0  0  0  0  0
   97.4922  132.7026  118.2533 Cl  0  0  0  0  0
   98.6932  131.6325  121.0691 Cl  0  0  0  0  0
   96.8030  128.7492  112.5368 F   0  0  0  0  0
  1  2  1  0  0  0
  2  3  1  0  0  0
  2 31  1  0  0  0
  2 26  1  0  0  0
  3  1  1  0  0  0
  4  5  1  0  0  0
  7  8  1  0  0  0
  9 10  1  0  0  0
  9 37  1  0  0  0
 10 36  1  0  0  0
 11  6  1  0  0  0
 13  5  1  0  0  0
 14 13  1  0  0  0
 14 15  1  0  0  0
 15 16  1  0  0  0
 16 17  1  0  0  0
 17 18  1  0  0  0
 18 12  1  0  0  0
 19 20  1  0  0  0
 21 22  1  0  0  0
 23 24  1  0  0  0
 23 38  1  0  0  0
 25 20  1  0  0  0
 26 34  1  0  0  0
 27 28  1  0  0  0
 29 30  1  0  0  0
 31  4  1  0  0  0
 33 32  1  0  0  0
 33  6  1  0  0  0
 33 12  1  0  0  0
  4 35  2  0  0  0
  5 32  2  0  0  0
  6  7  2  0  0  0
  8  9  2  0  0  0
 10 11  2  0  0  0
 12 13  2  0  0  0
 18 19  2  0  0  0
 20 21  2  0  0  0
 22 23  2  0  0  0
 24 25  2  0  0  0
 26 27  2  0  0  0
 28 29  2  0  0  0
 30 34  2  0  0  0
M  END
> <rmsd>
0.479182214

$$$$
CHEMBL1760650_5U09


 30 32  0  0  0  0  0  0  0  0999 V2000
   94.4627  128.6559  122.3483 C   0  0  0  0  0
   94.9530  130.6590  120.9760 C   0  0  0  0  0
   96.2536  130.2105  120.6896 C   0  0  0  0  0
   97.1038  130.9699  119.8829 C   0  0  0  0  0
   96.6631  132.1848  119.3553 C   0  0  0  0  0
   95.3726  132.6396  119.6334 C   0  0  0  0  0
   94.5144  131.8845  120.4398 C   0  0  0  0  0
   93.1330  132.4020  120.6974 C   0  0  0  0  0
   91.1797  130.8052  120.4885 C   0  0  0  0  0
   90.9420  130.5834  121.9278 C   0  0  0  0  0
   89.6182  129.4108  123.7437 C   0  0  0  0  0
   88.4134  130.2458  124.1782 C   0  0  0  0  0
   87.2049  129.8926  123.3244 C   0  0  0  0  0
   88.1049  129.9024  125.6235 C   0  0  0  0  0
   88.7304  131.7364  124.0642 C   0  0  0  0  0
   90.4132  130.2100  119.4819 C   0  0  0  0  0
   90.9513  130.7131  118.3148 C   0  0  0  0  0
   90.5816  130.4715  116.9939 C   0  0  0  0  0
   91.3025  131.1302  115.9813 C   0  0  0  0  0
   90.9590  130.9124  114.6049 C   0  0  0  0  0
   92.3600  132.0053  116.3102 C   0  0  0  0  0
   92.7104  132.2304  117.6528 C   0  0  0  0  0
   91.9790  131.5596  118.6348 C   0  0  0  0  0
   94.0929  129.9059  121.7829 O   0  0  0  0  0
   91.5969  131.2277  122.7911 O   0  0  0  0  0
   87.6435  132.5181  124.4660 O   0  0  0  0  0
   97.8198  133.2209  118.2520 Br  0  0  0  0  0
   92.1366  131.6192  119.9680 N   0  0  0  0  0
   89.9583  129.6318  122.3420 N   0  0  0  0  0
   90.6821  130.7368  113.4950 N   0  0  0  0  0
  1 24  1  0  0  0
  2 24  1  0  0  0
  3  4  1  0  0  0
  5 27  1  0  0  0
  5  6  1  0  0  0
  7  2  1  0  0  0
  8  7  1  0  0  0
  8 28  1  0  0  0
  9 10  1  0  0  0
 10 29  1  0  0  0
 11 29  1  0  0  0
 11 12  1  0  0  0
 12 13  1  0  0  0
 12 14  1  0  0  0
 12 15  1  0  0  0
 15 26  1  0  0  0
 16 17  1  0  0  0
 18 19  1  0  0  0
 19 20  1  0  0  0
 21 22  1  0  0  0
 23 28  1  0  0  0
 23 17  1  0  0  0
 28  9  1  0  0  0
  2  3  2  0  0  0
  4  5  2  0  0  0
  6  7  2  0  0  0
  9 16  2  0  0  0
 10 25  2  0  0  0
 17 18  2  0  0  0
 19 21  2  0  0  0
 22 23  2  0  0  0
 20 30  3  0  0  0
M  END
> <rmsd>
0.236907095

$$$$
CHEMBL482986_5TGZ


 29 33  0  0  0  0  0  0  0  0999 V2000
   92.2182  130.4530  118.9784 N   0  0  0  0  0
   90.9439  130.3183  119.3290 N   0  0  0  0  0
   89.8572  131.0594  122.8539 N   0  0  0  0  0
   90.8649  130.6365  120.6322 C   0  0  0  0  0
   92.0919  130.9727  121.1260 C   0  0  0  0  0
   92.9570  130.8403  120.0550 C   0  0  0  0  0
   94.4096  131.1311  120.0645 C   0  0  0  0  0
   95.0497  131.6181  118.9153 C   0  0  0  0  0
   96.4158  131.9119  118.9338 C   0  0  0  0  0
   97.1531  131.7276  120.1060 C   0  0  0  0  0
   96.5234  131.2550  121.2599 C   0  0  0  0  0
   95.1571  130.9612  121.2393 C   0  0  0  0  0
   92.3333  131.2863  122.5727 C   0  0  0  0  0
   91.0463  131.8508  123.2084 C   0  0  0  0  0
   89.6863  130.6179  121.4894 C   0  0  0  0  0
   88.8963  130.7587  123.9135 C   0  0  0  0  0
   88.6880  129.2607  124.0696 C   0  0  0  0  0
   87.1902  129.0242  124.0089 C   0  0  0  0  0
   86.5378  130.3814  124.1662 C   0  0  0  0  0
   87.5408  131.3739  123.6270 C   0  0  0  0  0
   92.6988  130.0873  117.6761 C   0  0  0  0  0
   93.7156  129.1281  117.5553 C   0  0  0  0  0
   94.1745  128.7365  116.2957 C   0  0  0  0  0
   93.6161  129.2958  115.1449 C   0  0  0  0  0
   92.5980  130.2460  115.2534 C   0  0  0  0  0
   92.1318  130.6415  116.5113 C   0  0  0  0  0
   98.8641  132.0946  120.1303 Cl  0  0  0  0  0
   90.8732  131.8637  116.5912 Cl  0  0  0  0  0
   88.5771  130.1997  121.0618 O   0  0  0  0  0
  1  2  1  0  0  0
  1 21  1  0  0  0
  3 15  1  0  0  0
  4  5  1  0  0  0
  6  7  1  0  0  0
  6  1  1  0  0  0
  8  9  1  0  0  0
 10 11  1  0  0  0
 10 27  1  0  0  0
 12  7  1  0  0  0
 13  5  1  0  0  0
 13 14  1  0  0  0
 14  3  1  0  0  0
 15  4  1  0  0  0
 16  3  1  0  0  0
 16 17  1  0  0  0
 17 18  1  0  0  0
 18 19  1  0  0  0
 19 20  1  0  0  0
 20 16  1  0  0  0
 22 23  1  0  0  0
 24 25  1  0  0  0
 26 28  1  0  0  0
 26 21  1  0  0  0
  4  2  2  0  0  0
  5  6  2  0  0  0
  7  8  2  0  0  0
  9 10  2  0  0  0
 11 12  2  0  0  0
 15 29  2  0  0  0
 21 22  2  0  0  0
 23 24  2  0  0  0
 25 26  2  0  0  0
M  END
> <rmsd>
0.645272613

$$$$
CHEMBL3422784_6N4B


 29 32  0  0  0  0  0  0  0  0999 V2000
   90.2041  132.2405  117.4368 C   0  0  0  0  0
   90.8745  132.4912  116.2374 C   0  0  0  0  0
   92.1525  131.9685  116.0281 C   0  0  0  0  0
   92.7636  131.1954  117.0187 C   0  0  0  0  0
   92.1047  130.9359  118.2349 C   0  0  0  0  0
   90.8116  131.4671  118.4297 C   0  0  0  0  0
   90.1407  131.2146  119.6179 C   0  0  0  0  0
   90.7300  130.4383  120.6173 C   0  0  0  0  0
   92.0258  129.9170  120.3940 C   0  0  0  0  0
   94.0447  129.6463  119.0333 C   0  0  0  0  0
   95.0649  130.5958  119.5715 C   0  0  0  0  0
   95.4745  130.5022  120.9063 C   0  0  0  0  0
   96.4143  131.4032  121.4160 C   0  0  0  0  0
   96.9439  132.4013  120.5925 C   0  0  0  0  0
   96.5326  132.4995  119.2598 C   0  0  0  0  0
   95.5928  131.5985  118.7503 C   0  0  0  0  0
   89.9672  130.1971  121.8669 C   0  0  0  0  0
   87.8092  130.5898  123.1952 C   0  0  0  0  0
   87.4799  129.1150  123.4219 C   0  0  0  0  0
   86.5711  128.9554  124.6402 C   0  0  0  0  0
   87.1906  129.5803  125.8933 C   0  0  0  0  0
   87.5732  131.0429  125.6511 C   0  0  0  0  0
   88.4782  131.1945  124.4288 C   0  0  0  0  0
   88.3819  128.7717  126.3821 C   0  0  0  0  0
   92.5764  129.2023  121.2776 O   0  0  0  0  0
   90.4624  129.5072  122.7994 O   0  0  0  0  0
   92.6900  130.1796  119.2206 N   0  0  0  0  0
   88.6534  130.7557  122.0158 N   0  0  0  0  0
   97.8543  133.2742  121.0863 F   0  0  0  0  0
  2  3  1  0  0  0
  4  5  1  0  0  0
  6  7  1  0  0  0
  6  1  1  0  0  0
  8  9  1  0  0  0
  8 17  1  0  0  0
  9 27  1  0  0  0
 10 27  1  0  0  0
 10 11  1  0  0  0
 12 13  1  0  0  0
 14 15  1  0  0  0
 14 29  1  0  0  0
 16 11  1  0  0  0
 17 28  1  0  0  0
 18 28  1  0  0  0
 18 19  1  0  0  0
 19 20  1  0  0  0
 20 21  1  0  0  0
 21 22  1  0  0  0
 21 24  1  0  0  0
 22 23  1  0  0  0
 23 18  1  0  0  0
 27  5  1  0  0  0
  1  2  2  0  0  0
  3  4  2  0  0  0
  5  6  2  0  0  0
  7  8  2  0  0  0
  9 25  2  0  0  0
 11 12  2  0  0  0
 13 14  2  0  0  0
 15 16  2  0  0  0
 17 26  2  0  0  0
M  END
> <rmsd>
0.386359781

$$$$
CHEMBL482742_5TGZ


 30 33  0  0  0  0  0  0  0  0999 V2000
   94.0263  128.3048  116.6267 C   0  0  0  0  0
   93.4696  128.7292  115.4187 C   0  0  0  0  0
   92.5081  129.7423  115.4105 C   0  0  0  0  0
   92.0967  130.3358  116.6081 C   0  0  0  0  0
   92.6622  129.9180  117.8294 C   0  0  0  0  0
   93.6220  128.8944  117.8265 C   0  0  0  0  0
   93.0164  130.9671  120.0763 C   0  0  0  0  0
   92.1887  131.3074  121.1298 C   0  0  0  0  0
   90.9018  130.9928  120.7110 C   0  0  0  0  0
   89.6230  131.1396  121.4391 C   0  0  0  0  0
   90.7263  131.3141  123.7228 C   0  0  0  0  0
   91.7053  132.3904  123.3077 C   0  0  0  0  0
   88.2635  131.6077  123.5001 C   0  0  0  0  0
   87.6202  130.3122  123.9836 C   0  0  0  0  0
   94.4810  131.1826  120.0205 C   0  0  0  0  0
   95.1179  131.4715  118.8045 C   0  0  0  0  0
   96.4966  131.6951  118.7608 C   0  0  0  0  0
   97.2502  131.6385  119.9357 C   0  0  0  0  0
   96.6244  131.3635  121.1541 C   0  0  0  0  0
   95.2454  131.1397  121.1960 C   0  0  0  0  0
   92.2366  130.4887  119.0762 N   0  0  0  0  0
   90.9671  130.5008  119.4570 N   0  0  0  0  0
   89.5527  131.3580  122.8624 N   0  0  0  0  0
   88.5538  131.0593  120.7747 O   0  0  0  0  0
   92.6037  131.8768  122.3372 O   0  0  0  0  0
   87.4263  129.4469  122.9229 F   0  0  0  0  0
   86.3971  130.6046  124.5552 F   0  0  0  0  0
   88.4260  129.7063  124.9299 F   0  0  0  0  0
   98.9770  131.9177  119.8821 Cl  0  0  0  0  0
   90.9102  131.6288  116.5359 Cl  0  0  0  0  0
  2  3  1  0  0  0
  4  5  1  0  0  0
  4 30  1  0  0  0
  5 21  1  0  0  0
  6  1  1  0  0  0
  7 15  1  0  0  0
  8  9  1  0  0  0
  8 25  1  0  0  0
  9 10  1  0  0  0
 10 23  1  0  0  0
 11 23  1  0  0  0
 11 12  1  0  0  0
 12 25  1  0  0  0
 13 23  1  0  0  0
 13 14  1  0  0  0
 14 26  1  0  0  0
 14 27  1  0  0  0
 14 28  1  0  0  0
 16 17  1  0  0  0
 18 19  1  0  0  0
 18 29  1  0  0  0
 20 15  1  0  0  0
 21  7  1  0  0  0
 21 22  1  0  0  0
  1  2  2  0  0  0
  3  4  2  0  0  0
  5  6  2  0  0  0
  7  8  2  0  0  0
  9 22  2  0  0  0
 10 24  2  0  0  0
 15 16  2  0  0  0
 17 18  2  0  0  0
 19 20  2  0  0  0
M  END
> <rmsd>
0.713364899

$$$$
CHEMBL467896_6N4B


 29 32  0  0  0  0  0  0  0  0999 V2000
   97.7706  133.2529  121.1347 F   0  0  0  0  0
   96.8510  132.3733  120.6708 C   0  0  0  0  0
   96.5298  132.3504  119.3102 C   0  0  0  0  0
   95.5805  131.4425  118.8314 C   0  0  0  0  0
   94.9535  130.5537  119.7118 C   0  0  0  0  0
   93.9224  129.5998  119.2042 C   0  0  0  0  0
   91.8302  130.0640  120.3980 C   0  0  0  0  0
   90.5489  130.6603  120.4827 C   0  0  0  0  0
   90.0756  131.3827  119.3834 C   0  0  0  0  0
   90.8473  131.5093  118.2370 C   0  0  0  0  0
   90.3749  132.2264  117.1379 C   0  0  0  0  0
   91.1657  132.3390  115.9938 C   0  0  0  0  0
   92.4215  131.7286  115.9682 C   0  0  0  0  0
   92.1182  130.9073  118.1839 C   0  0  0  0  0
   89.6811  130.5561  121.6836 C   0  0  0  0  0
   89.3302  129.6687  124.0655 C   0  0  0  0  0
   88.9959  131.0168  124.7129 C   0  0  0  0  0
   88.1030  130.8664  125.9345 C   0  0  0  0  0
   86.6418  130.9780  125.5220 C   0  0  0  0  0
   86.1263  129.6938  124.8829 C   0  0  0  0  0
   86.8218  129.3961  123.5616 C   0  0  0  0  0
   88.1562  128.7077  123.8205 C   0  0  0  0  0
   95.2724  130.5818  121.0741 C   0  0  0  0  0
   96.2217  131.4897  121.5529 C   0  0  0  0  0
   92.5880  130.2036  119.2612 N   0  0  0  0  0
   92.8664  131.0334  117.0495 N   0  0  0  0  0
   90.1219  129.8521  122.8529 N   0  0  0  0  0
   92.2818  129.3961  121.3694 O   0  0  0  0  0
   88.5434  131.1017  121.6759 O   0  0  0  0  0
  2  1  1  0  0  0
  3  4  1  0  0  0
  5 23  1  0  0  0
  6  5  1  0  0  0
  6 25  1  0  0  0
  7  8  1  0  0  0
  8 15  1  0  0  0
  9 10  1  0  0  0
 11 12  1  0  0  0
 13 26  1  0  0  0
 14 25  1  0  0  0
 14 10  1  0  0  0
 15 27  1  0  0  0
 16 27  1  0  0  0
 16 17  1  0  0  0
 17 18  1  0  0  0
 18 19  1  0  0  0
 19 20  1  0  0  0
 20 21  1  0  0  0
 21 22  1  0  0  0
 22 16  1  0  0  0
 24  2  1  0  0  0
 25  7  1  0  0  0
  2  3  2  0  0  0
  4  5  2  0  0  0
  7 28  2  0  0  0
  8  9  2  0  0  0
 10 11  2  0  0  0
 12 13  2  0  0  0
 14 26  2  0  0  0
 15 29  2  0  0  0
 23 24  2  0  0  0
M  END
> <rmsd>
0.331917912

$$$$
CHEMBL1828632_6N4B


 26 29  0  0  0  0  0  0  0  0999 V2000
   94.1032  130.9967  118.5416 C   0  0  0  0  0
   92.6460  131.0899  118.7870 C   0  0  0  0  0
   91.6381  131.1128  117.8373 C   0  0  0  0  0
   90.4544  131.1664  118.5156 C   0  0  0  0  0
   89.2392  131.1928  117.8362 C   0  0  0  0  0
   90.4463  131.1138  115.7708 C   0  0  0  0  0
   91.6799  131.0844  116.4452 C   0  0  0  0  0
   92.0078  131.1207  120.0301 C   0  0  0  0  0
   89.6636  131.1862  120.8929 C   0  0  0  0  0
   89.2828  129.7603  121.2561 C   0  0  0  0  0
   88.2458  129.7556  122.3645 C   0  0  0  0  0
   88.8938  130.0830  123.6966 C   0  0  0  0  0
   87.8409  130.0789  124.7843 C   0  0  0  0  0
   95.0956  131.1451  119.6392 C   0  0  0  0  0
   94.8295  132.0572  120.6726 C   0  0  0  0  0
   95.7391  132.2585  121.7114 C   0  0  0  0  0
   96.9397  131.5512  121.7365 C   0  0  0  0  0
   97.2353  130.6386  120.7238 C   0  0  0  0  0
   98.4398  129.9308  120.7662 C   0  0  0  0  0
   98.7450  129.0042  119.7671 C   0  0  0  0  0
   97.8459  128.7796  118.7226 C   0  0  0  0  0
   96.6400  129.4835  118.6722 C   0  0  0  0  0
   96.3173  130.4258  119.6629 C   0  0  0  0  0
   94.5088  130.7960  117.3648 O   0  0  0  0  0
   89.2692  131.1664  116.4708 N   0  0  0  0  0
   90.6690  131.1790  119.8417 N   0  0  0  0  0
  1  2  1  0  0  0
  1 14  1  0  0  0
  2  3  1  0  0  0
  3  4  1  0  0  0
  4 26  1  0  0  0
  5 25  1  0  0  0
  6  7  1  0  0  0
  9 26  1  0  0  0
  9 10  1  0  0  0
 10 11  1  0  0  0
 11 12  1  0  0  0
 12 13  1  0  0  0
 15 16  1  0  0  0
 17 18  1  0  0  0
 19 20  1  0  0  0
 21 22  1  0  0  0
 23 14  1  0  0  0
 23 18  1  0  0  0
 26  8  1  0  0  0
  1 24  2  0  0  0
  4  5  2  0  0  0
  6 25  2  0  0  0
  7  3  2  0  0  0
  8  2  2  0  0  0
 14 15  2  0  0  0
 16 17  2  0  0  0
 18 19  2  0  0  0
 20 21  2  0  0  0
 22 23  2  0  0  0
M  END
> <rmsd>
0.577879548

$$$$
CHEMBL390675_8GHV


 28 31  0  0  0  0  0  0  0  0999 V2000
   95.4251  132.6063  120.8393 C   0  0  0  0  0
   96.6782  132.3392  121.3950 C   0  0  0  0  0
   97.4274  131.2509  120.9422 C   0  0  0  0  0
   96.9242  130.4220  119.9356 C   0  0  0  0  0
   95.6450  130.6728  119.3766 C   0  0  0  0  0
   94.9139  131.7814  119.8345 C   0  0  0  0  0
   95.1518  129.8235  118.3554 C   0  0  0  0  0
   95.9573  128.7714  117.8966 C   0  0  0  0  0
   97.2163  128.5359  118.4517 C   0  0  0  0  0
   97.6966  129.3562  119.4719 C   0  0  0  0  0
   93.8223  130.0069  117.7254 C   0  0  0  0  0
   92.6009  130.2585  118.5335 C   0  0  0  0  0
   92.5026  129.6564  119.7949 C   0  0  0  0  0
   91.3753  129.8381  120.5928 C   0  0  0  0  0
   90.3080  130.6273  120.1505 C   0  0  0  0  0
   90.3809  131.2429  118.8883 C   0  0  0  0  0
   91.5293  131.0602  118.0710 C   0  0  0  0  0
   91.5847  131.7048  116.8241 C   0  0  0  0  0
   90.5269  132.5018  116.3830 C   0  0  0  0  0
   89.3979  132.6709  117.1844 C   0  0  0  0  0
   89.3256  132.0463  118.4302 C   0  0  0  0  0
   89.0129  130.2070  122.2932 C   0  0  0  0  0
   87.6804  130.6096  122.8956 C   0  0  0  0  0
   87.5171  129.9986  124.2757 C   0  0  0  0  0
   88.3713  130.7392  125.2875 C   0  0  0  0  0
   88.1975  130.1081  126.6525 C   0  0  0  0  0
   93.7245  129.8821  116.4742 O   0  0  0  0  0
   89.1518  130.8111  120.9777 N   0  0  0  0  0
  2  3  1  0  0  0
  4  5  1  0  0  0
  5  7  1  0  0  0
  6  1  1  0  0  0
  7 11  1  0  0  0
  8  9  1  0  0  0
 10  4  1  0  0  0
 11 12  1  0  0  0
 13 14  1  0  0  0
 15 16  1  0  0  0
 15 28  1  0  0  0
 17 18  1  0  0  0
 17 12  1  0  0  0
 19 20  1  0  0  0
 21 16  1  0  0  0
 22 28  1  0  0  0
 22 23  1  0  0  0
 23 24  1  0  0  0
 24 25  1  0  0  0
 25 26  1  0  0  0
  1  2  2  0  0  0
  3  4  2  0  0  0
  5  6  2  0  0  0
  7  8  2  0  0  0
  9 10  2  0  0  0
 11 27  2  0  0  0
 12 13  2  0  0  0
 14 15  2  0  0  0
 16 17  2  0  0  0
 18 19  2  0  0  0
 20 21  2  0  0  0
M  END
> <rmsd>
0.583853185

$$$$
CHEMBL3260754_5U09


 39 43  0  0  0  0  0  0  0  0999 V2000
   88.1173  129.5078  115.2726 C   0  0  0  0  0
   89.2460  130.4604  114.9245 C   0  0  0  0  0
   91.7149  130.8345  117.4423 C   0  0  0  0  0
   92.9704  130.6979  118.0356 C   0  0  0  0  0
   94.0433  129.9293  117.3585 C   0  0  0  0  0
   94.3336  130.1592  116.0052 C   0  0  0  0  0
   95.3415  129.4334  115.3646 C   0  0  0  0  0
   96.0652  128.4697  116.0714 C   0  0  0  0  0
   95.7787  128.2283  117.4173 C   0  0  0  0  0
   94.7705  128.9537  118.0575 C   0  0  0  0  0
   93.1413  131.3060  119.3102 C   0  0  0  0  0
   94.4560  131.2957  119.9944 C   0  0  0  0  0
   94.5833  130.6673  121.2388 C   0  0  0  0  0
   95.8231  130.6539  121.8800 C   0  0  0  0  0
   96.8015  131.8746  120.0951 C   0  0  0  0  0
   95.5800  131.9121  119.4197 C   0  0  0  0  0
   92.0454  131.9769  119.9190 C   0  0  0  0  0
   89.6742  132.6871  119.9079 C   0  0  0  0  0
   89.2327  131.9817  121.1587 C   0  0  0  0  0
   89.4139  132.6286  122.3832 C   0  0  0  0  0
   89.0228  132.0114  123.5702 C   0  0  0  0  0
   88.4383  130.7422  123.5236 C   0  0  0  0  0
   88.0441  130.0498  124.7927 C   0  0  0  0  0
   88.6454  130.7012  121.1496 C   0  0  0  0  0
   88.4132  129.9542  119.8819 C   0  0  0  0  0
   89.6936  131.4147  117.2079 C   0  0  0  0  0
   90.0560  130.7336  116.1024 N   0  0  0  0  0
   91.3254  130.3650  116.2341 N   0  0  0  0  0
   96.8981  131.2507  121.2994 N   0  0  0  0  0
   90.8266  132.0236  119.2878 N   0  0  0  0  0
   88.2737  130.1213  122.3228 N   0  0  0  0  0
   90.7218  131.4788  118.0723 N   0  0  0  0  0
   97.3285  127.5621  115.2697 Cl  0  0  0  0  0
   95.4937  132.5545  118.2281 F   0  0  0  0  0
   87.2472  128.9526  124.5170 F   0  0  0  0  0
   89.1801  129.6258  125.4567 F   0  0  0  0  0
   87.3392  130.9191  125.6059 F   0  0  0  0  0
   92.2020  132.5461  121.0354 O   0  0  0  0  0
   88.5567  131.9279  117.3914 O   0  0  0  0  0
  1  2  1  0  0  0
  2 27  1  0  0  0
  3  4  1  0  0  0
  4  5  1  0  0  0
  6  7  1  0  0  0
  8 33  1  0  0  0
  8  9  1  0  0  0
 10  5  1  0  0  0
 11 12  1  0  0  0
 11 17  1  0  0  0
 13 14  1  0  0  0
 15 29  1  0  0  0
 16 34  1  0  0  0
 16 12  1  0  0  0
 17 30  1  0  0  0
 18 30  1  0  0  0
 18 19  1  0  0  0
 20 21  1  0  0  0
 22 31  1  0  0  0
 23 22  1  0  0  0
 23 35  1  0  0  0
 23 36  1  0  0  0
 23 37  1  0  0  0
 24 19  1  0  0  0
 25 24  1  0  0  0
 26 27  1  0  0  0
 27 28  1  0  0  0
 30 32  1  0  0  0
 32 26  1  0  0  0
 32  3  1  0  0  0
  3 28  2  0  0  0
  4 11  2  0  0  0
  5  6  2  0  0  0
  7  8  2  0  0  0
  9 10  2  0  0  0
 12 13  2  0  0  0
 14 29  2  0  0  0
 15 16  2  0  0  0
 17 38  2  0  0  0
 19 20  2  0  0  0
 21 22  2  0  0  0
 24 31  2  0  0  0
 26 39  2  0  0  0
M  END
> <rmsd>
0.816007674

$$$$
CHEMBL570908_6N4B


 25 28  0  0  0  0  0  0  0  0999 V2000
   90.3871  128.6059  124.0287 C   0  0  0  0  0
   89.5292  129.2299  122.9405 C   0  0  0  0  0
   89.3095  128.4054  121.6732 C   0  0  0  0  0
   89.6874  130.7587  122.8327 C   0  0  0  0  0
   89.6185  131.3056  121.4249 C   0  0  0  0  0
   90.6679  130.9838  120.4382 C   0  0  0  0  0
   91.8432  130.2725  120.6865 C   0  0  0  0  0
   93.8676  129.5619  119.4049 C   0  0  0  0  0
   94.9465  130.5394  119.7263 C   0  0  0  0  0
   95.4960  131.3330  118.7166 C   0  0  0  0  0
   96.4868  132.2620  119.0423 C   0  0  0  0  0
   96.3755  131.6327  121.3296 C   0  0  0  0  0
   95.3827  130.6925  121.0446 C   0  0  0  0  0
   91.8728  130.8436  118.5893 C   0  0  0  0  0
   92.2297  131.0330  117.2534 C   0  0  0  0  0
   91.3428  131.7590  116.4387 C   0  0  0  0  0
   90.1388  132.2720  116.9679 C   0  0  0  0  0
   89.8065  132.0662  118.3188 C   0  0  0  0  0
   90.7053  131.3429  119.1026 C   0  0  0  0  0
   88.3858  130.1426  123.3789 C   0  0  0  0  0
   88.1941  130.3607  124.8707 C   0  0  0  0  0
   87.1296  130.1641  122.5109 C   0  0  0  0  0
   88.7096  132.1240  121.1203 O   0  0  0  0  0
   92.5608  130.1902  119.5420 N   0  0  0  0  0
   96.9035  132.3912  120.3310 N   0  0  0  0  0
  1  2  1  0  0  0
  2  3  1  0  0  0
  2  4  1  0  0  0
  4  5  1  0  0  0
  4 20  1  0  0  0
  5  6  1  0  0  0
  7 24  1  0  0  0
  8 24  1  0  0  0
  8  9  1  0  0  0
 10 11  1  0  0  0
 12 25  1  0  0  0
 13  9  1  0  0  0
 15 16  1  0  0  0
 17 18  1  0  0  0
 19  6  1  0  0  0
 19 14  1  0  0  0
 20 21  1  0  0  0
 20 22  1  0  0  0
 20  2  1  0  0  0
 24 14  1  0  0  0
  5 23  2  0  0  0
  6  7  2  0  0  0
  9 10  2  0  0  0
 11 25  2  0  0  0
 12 13  2  0  0  0
 14 15  2  0  0  0
 16 17  2  0  0  0
 18 19  2  0  0  0
M  END
> <rmsd>
0.440345109

$$$$
CHEMBL1801076_6N4B


 35 39  0  0  0  0  0  0  0  0999 V2000
   94.2381  133.0482  125.8206 C   0  0  0  0  0
   91.9729  133.0970  126.7896 C   0  0  0  0  0
   91.3514  132.3889  125.7734 C   0  0  0  0  0
   90.0483  132.3307  126.2357 C   0  0  0  0  0
   88.9272  131.6826  125.5511 C   0  0  0  0  0
   88.1680  130.3196  123.4707 C   0  0  0  0  0
   88.6578  129.7134  122.2012 C   0  0  0  0  0
   89.1982  130.0881  119.7152 C   0  0  0  0  0
   88.8827  128.6536  119.3246 C   0  0  0  0  0
   90.6749  130.3618  119.7264 C   0  0  0  0  0
   91.4978  129.8361  120.7284 C   0  0  0  0  0
   92.8638  130.1219  120.7455 C   0  0  0  0  0
   93.4342  130.9357  119.7580 C   0  0  0  0  0
   96.8823  131.3129  120.5673 C   0  0  0  0  0
   96.8669  132.0319  119.3899 C   0  0  0  0  0
   97.8723  132.6904  118.6881 C   0  0  0  0  0
   97.5102  133.3121  117.4820 C   0  0  0  0  0
   96.1793  133.2582  117.0164 C   0  0  0  0  0
   95.1898  132.5811  117.7522 C   0  0  0  0  0
   95.5742  131.9771  118.9454 C   0  0  0  0  0
   92.6083  131.4580  118.7553 C   0  0  0  0  0
   91.2410  131.1711  118.7338 C   0  0  0  0  0
   86.7427  130.8204  123.5023 C   0  0  0  0  0
   87.1256  129.5258  124.2247 C   0  0  0  0  0
   93.3253  133.4407  126.8366 O   0  0  0  0  0
   87.7856  131.6998  126.0778 O   0  0  0  0  0
   89.1961  128.5751  122.2240 O   0  0  0  0  0
   89.9513  132.9435  127.3935 O   0  0  0  0  0
   89.1437  131.0411  124.2894 N   0  0  0  0  0
   88.5673  130.4591  120.9811 N   0  0  0  0  0
   94.8375  131.2498  119.8154 N   0  0  0  0  0
   95.6360  130.8409  120.7997 N   0  0  0  0  0
   91.1007  133.4216  127.7611 N   0  0  0  0  0
   98.3920  130.9692  121.6832 Br  0  0  0  0  0
   90.4713  131.6954  117.7496 F   0  0  0  0  0
  1 25  1  0  0  0
  2 25  1  0  0  0
  2  3  1  0  0  0
  4  5  1  0  0  0
  4 28  1  0  0  0
  5 29  1  0  0  0
  6 29  1  0  0  0
  6  7  1  0  0  0
  6 23  1  0  0  0
  7 30  1  0  0  0
  8 30  1  0  0  0
  8  9  1  0  0  0
  8 10  1  0  0  0
 11 12  1  0  0  0
 13 31  1  0  0  0
 13 21  1  0  0  0
 14 34  1  0  0  0
 14 15  1  0  0  0
 16 17  1  0  0  0
 18 19  1  0  0  0
 20 31  1  0  0  0
 20 15  1  0  0  0
 22 35  1  0  0  0
 22 10  1  0  0  0
 23 24  1  0  0  0
 24  6  1  0  0  0
 28 33  1  0  0  0
 31 32  1  0  0  0
  2 33  2  0  0  0
  3  4  2  0  0  0
  5 26  2  0  0  0
  7 27  2  0  0  0
 10 11  2  0  0  0
 12 13  2  0  0  0
 14 32  2  0  0  0
 15 16  2  0  0  0
 17 18  2  0  0  0
 19 20  2  0  0  0
 21 22  2  0  0  0
M  END
> <rmsd>
0.740966022

$$$$
CHEMBL4779298_6N4B


 26 28  0  0  0  0  0  0  0  0999 V2000
   90.7356  130.2371  118.3888 C   0  0  0  0  0
   91.7334  131.2081  118.3924 C   0  0  0  0  0
   93.2347  132.7556  119.5677 C   0  0  0  0  0
   94.5710  132.1136  119.7532 C   0  0  0  0  0
   95.1101  131.9771  121.0374 C   0  0  0  0  0
   96.3519  131.3597  121.2143 C   0  0  0  0  0
   97.0556  130.8751  120.1076 C   0  0  0  0  0
   96.5169  131.0065  118.8241 C   0  0  0  0  0
   95.2751  131.6240  118.6472 C   0  0  0  0  0
   91.6229  131.3533  120.7719 C   0  0  0  0  0
   90.6106  130.3663  120.8024 C   0  0  0  0  0
   90.1807  129.8186  119.5915 C   0  0  0  0  0
   89.9849  129.8884  122.0601 C   0  0  0  0  0
   88.2071  128.3321  123.1277 C   0  0  0  0  0
   87.1163  129.2640  123.6698 C   0  0  0  0  0
   87.6903  130.4655  124.4082 C   0  0  0  0  0
   87.9015  130.1982  125.8999 C   0  0  0  0  0
   88.5266  128.8414  126.2314 C   0  0  0  0  0
   89.6384  128.4581  125.2671 C   0  0  0  0  0
   89.0771  127.5858  124.1493 C   0  0  0  0  0
   92.2919  131.6414  117.0760 C   0  0  0  0  0
   92.1695  131.7480  119.5755 N   0  0  0  0  0
   88.9564  128.8893  122.0012 N   0  0  0  0  0
   98.2586  130.2770  120.2791 F   0  0  0  0  0
   92.0250  131.8783  121.8478 O   0  0  0  0  0
   90.3560  130.3489  123.1722 O   0  0  0  0  0
  2 22  1  0  0  0
  3 22  1  0  0  0
  3  4  1  0  0  0
  5  6  1  0  0  0
  7  8  1  0  0  0
  7 24  1  0  0  0
  9  4  1  0  0  0
 10 11  1  0  0  0
 11 13  1  0  0  0
 12  1  1  0  0  0
 13 23  1  0  0  0
 14 23  1  0  0  0
 14 15  1  0  0  0
 15 16  1  0  0  0
 16 17  1  0  0  0
 17 18  1  0  0  0
 18 19  1  0  0  0
 19 20  1  0  0  0
 20 14  1  0  0  0
 21  2  1  0  0  0
 22 10  1  0  0  0
  1  2  2  0  0  0
  4  5  2  0  0  0
  6  7  2  0  0  0
  8  9  2  0  0  0
 10 25  2  0  0  0
 11 12  2  0  0  0
 13 26  2  0  0  0
M  END
> <rmsd>
0.59291327

$$$$
CHEMBL3956678_5TGZ


 37 41  0  0  0  0  0  0  0  0999 V2000
   89.4574  132.9486  124.8962 C   0  0  0  0  0
   88.9185  132.3382  123.6155 C   0  0  0  0  0
   88.2044  131.0538  123.9073 C   0  0  0  0  0
   86.8337  130.9583  123.6421 C   0  0  0  0  0
   86.1493  129.7662  123.8975 C   0  0  0  0  0
   86.8339  128.6641  124.4183 C   0  0  0  0  0
   88.2035  128.7531  124.6836 C   0  0  0  0  0
   88.8889  129.9446  124.4287 C   0  0  0  0  0
   89.8082  131.7974  121.3018 C   0  0  0  0  0
   90.9706  131.5301  120.4409 C   0  0  0  0  0
   92.3018  131.0387  118.7673 C   0  0  0  0  0
   90.9611  131.1862  119.0966 C   0  0  0  0  0
   89.7432  130.9867  118.2329 C   0  0  0  0  0
   90.0457  130.4182  116.8514 C   0  0  0  0  0
   90.8585  131.4226  116.0470 C   0  0  0  0  0
   92.3733  131.2478  116.1967 C   0  0  0  0  0
   92.8279  130.5763  117.4665 C   0  0  0  0  0
   93.6900  129.5483  117.4641 C   0  0  0  0  0
   94.3545  128.9040  116.3127 C   0  0  0  0  0
   94.1525  129.3081  114.9838 C   0  0  0  0  0
   94.8146  128.6605  113.9370 C   0  0  0  0  0
   95.6856  127.6031  114.2110 C   0  0  0  0  0
   95.8936  127.1946  115.5307 C   0  0  0  0  0
   95.2298  127.8440  116.5758 C   0  0  0  0  0
   94.4765  131.2851  119.9820 C   0  0  0  0  0
   95.1396  130.6774  121.0695 C   0  0  0  0  0
   96.5350  130.7241  121.1489 C   0  0  0  0  0
   97.2775  131.3761  120.1626 C   0  0  0  0  0
   96.6281  131.9824  119.0866 C   0  0  0  0  0
   95.2355  131.9383  118.9985 C   0  0  0  0  0
   90.0144  132.1193  122.6803 N   0  0  0  0  0
   92.2411  131.5758  120.8869 N   0  0  0  0  0
   93.0423  131.2686  119.8781 N   0  0  0  0  0
   88.6396  131.7451  120.8318 O   0  0  0  0  0
   96.3286  126.9749  113.1977 F   0  0  0  0  0
   99.0233  131.4278  120.2729 Cl  0  0  0  0  0
   94.2695  129.7983  122.3166 Cl  0  0  0  0  0
  2  1  1  0  0  0
  2  3  1  0  0  0
  2 31  1  0  0  0
  4  5  1  0  0  0
  6  7  1  0  0  0
  8  3  1  0  0  0
  9 10  1  0  0  0
 11 17  1  0  0  0
 12 10  1  0  0  0
 13 12  1  0  0  0
 13 14  1  0  0  0
 14 15  1  0  0  0
 15 16  1  0  0  0
 16 17  1  0  0  0
 18 19  1  0  0  0
 20 21  1  0  0  0
 22 23  1  0  0  0
 22 35  1  0  0  0
 24 19  1  0  0  0
 26 27  1  0  0  0
 26 37  1  0  0  0
 28 29  1  0  0  0
 28 36  1  0  0  0
 30 25  1  0  0  0
 31  9  1  0  0  0
 33 32  1  0  0  0
 33 11  1  0  0  0
 33 25  1  0  0  0
  3  4  2  0  0  0
  5  6  2  0  0  0
  7  8  2  0  0  0
  9 34  2  0  0  0
 10 32  2  0  0  0
 11 12  2  0  0  0
 17 18  2  0  0  0
 19 20  2  0  0  0
 21 22  2  0  0  0
 23 24  2  0  0  0
 25 26  2  0  0  0
 27 28  2  0  0  0
 29 30  2  0  0  0
M  END
> <rmsd>
0.685440719

$$$$
CHEMBL1629731_5TGZ


 27 29  0  0  0  0  0  0  0  0999 V2000
   87.7768  133.0593  122.8863 C   0  0  0  0  0
   87.2191  131.6428  122.8964 C   0  0  0  0  0
   88.2293  130.6169  123.4161 C   0  0  0  0  0
   88.5483  130.8975  124.8736 C   0  0  0  0  0
   87.6134  129.2321  123.3321 C   0  0  0  0  0
   89.5669  130.4257  121.2301 C   0  0  0  0  0
   90.8697  130.5048  120.5501 C   0  0  0  0  0
   92.8403  130.1958  117.6237 C   0  0  0  0  0
   93.8954  129.2835  117.4720 C   0  0  0  0  0
   94.4073  128.9960  116.2049 C   0  0  0  0  0
   93.8642  129.6134  115.0768 C   0  0  0  0  0
   92.8088  130.5174  115.2152 C   0  0  0  0  0
   92.2893  130.8087  116.4804 C   0  0  0  0  0
   92.9894  130.7677  120.0562 C   0  0  0  0  0
   95.1154  131.6308  119.1120 C   0  0  0  0  0
   96.4035  131.8553  119.5555 C   0  0  0  0  0
   96.4419  131.4567  120.8813 C   0  0  0  0  0
   95.1759  131.0042  121.1958 C   0  0  0  0  0
   92.0997  130.8089  121.1152 C   0  0  0  0  0
   92.3899  131.1785  122.5313 C   0  0  0  0  0
   89.4695  130.6577  122.6417 N   0  0  0  0  0
   91.0257  130.2860  119.2280 N   0  0  0  0  0
   92.3064  130.4516  118.9309 N   0  0  0  0  0
   94.3864  131.1077  120.1129 N   0  0  0  0  0
   88.5353  130.1522  120.5591 O   0  0  0  0  0
   94.5064  129.2552  113.4888 Cl  0  0  0  0  0
   90.9851  131.9790  116.5987 Cl  0  0  0  0  0
  1  2  1  0  0  0
  2  3  1  0  0  0
  3  4  1  0  0  0
  3  5  1  0  0  0
  3 21  1  0  0  0
  6  7  1  0  0  0
  9 10  1  0  0  0
 11 26  1  0  0  0
 11 12  1  0  0  0
 13 27  1  0  0  0
 13  8  1  0  0  0
 14 24  1  0  0  0
 16 17  1  0  0  0
 18 24  1  0  0  0
 19  7  1  0  0  0
 20 19  1  0  0  0
 21  6  1  0  0  0
 23 22  1  0  0  0
 23  8  1  0  0  0
 23 14  1  0  0  0
 24 15  1  0  0  0
  6 25  2  0  0  0
  7 22  2  0  0  0
  8  9  2  0  0  0
 10 11  2  0  0  0
 12 13  2  0  0  0
 14 19  2  0  0  0
 15 16  2  0  0  0
 17 18  2  0  0  0
M  END
> <rmsd>
0.640051365

$$$$
CHEMBL572860_5TGZ


 31 34  0  0  0  0  0  0  0  0999 V2000
   92.4432  130.8168  118.7892 N   0  0  0  0  0
   91.1655  130.6842  119.1180 N   0  0  0  0  0
   94.5885  131.1769  119.9709 N   0  0  0  0  0
   89.7637  130.6064  122.6155 N   0  0  0  0  0
   91.0726  130.6970  120.4649 C   0  0  0  0  0
   92.3392  130.8363  121.0120 C   0  0  0  0  0
   93.1785  130.9077  119.9207 C   0  0  0  0  0
   95.2234  132.2571  119.4791 C   0  0  0  0  0
   96.5789  132.1932  119.7403 C   0  0  0  0  0
   96.7805  131.0051  120.4319 C   0  0  0  0  0
   95.5344  130.4205  120.5568 C   0  0  0  0  0
   95.2836  129.1076  121.2169 C   0  0  0  0  0
   94.5537  133.3947  118.7860 C   0  0  0  0  0
   92.7172  130.9779  122.4475 C   0  0  0  0  0
   89.7941  130.5896  121.1856 C   0  0  0  0  0
   88.5314  130.4749  123.3773 C   0  0  0  0  0
   88.0659  129.0235  123.3445 C   0  0  0  0  0
   86.5428  128.8792  123.4134 C   0  0  0  0  0
   85.8323  129.8308  124.3810 C   0  0  0  0  0
   86.5805  130.0194  125.6932 C   0  0  0  0  0
   87.5205  131.2133  125.5778 C   0  0  0  0  0
   88.8017  130.8709  124.8233 C   0  0  0  0  0
   92.9193  130.7850  117.4304 C   0  0  0  0  0
   92.1040  131.2270  116.3694 C   0  0  0  0  0
   92.5724  131.1721  115.0531 C   0  0  0  0  0
   93.8470  130.6717  114.7798 C   0  0  0  0  0
   94.6587  130.2234  115.8229 C   0  0  0  0  0
   94.1959  130.2776  117.1394 C   0  0  0  0  0
   88.7211  130.4835  120.5322 O   0  0  0  0  0
   94.2951  130.6205  113.5026 F   0  0  0  0  0
   90.8679  131.7327  116.6044 F   0  0  0  0  0
  1  2  1  0  0  0
  1 23  1  0  0  0
  3  8  1  0  0  0
  5  6  1  0  0  0
  5 15  1  0  0  0
  7  3  1  0  0  0
  7  1  1  0  0  0
  9 10  1  0  0  0
 11  3  1  0  0  0
 12 11  1  0  0  0
 13  8  1  0  0  0
 14  6  1  0  0  0
 15  4  1  0  0  0
 16  4  1  0  0  0
 16 17  1  0  0  0
 17 18  1  0  0  0
 18 19  1  0  0  0
 19 20  1  0  0  0
 20 21  1  0  0  0
 21 22  1  0  0  0
 22 16  1  0  0  0
 24 25  1  0  0  0
 24 31  1  0  0  0
 26 27  1  0  0  0
 26 30  1  0  0  0
 28 23  1  0  0  0
  5  2  2  0  0  0
  6  7  2  0  0  0
  8  9  2  0  0  0
 10 11  2  0  0  0
 15 29  2  0  0  0
 23 24  2  0  0  0
 25 26  2  0  0  0
 27 28  2  0  0  0
M  END
> <rmsd>
0.682461321

$$$$
CHEMBL4467516_6N4B


 29 32  0  0  0  0  0  0  0  0999 V2000
   92.3530  131.6385  116.2882 C   0  0  0  0  0
   91.0095  132.0685  116.2650 C   0  0  0  0  0
   90.1921  131.9119  117.3982 C   0  0  0  0  0
   90.7546  131.3246  118.5297 C   0  0  0  0  0
   92.0597  130.9084  118.5526 C   0  0  0  0  0
   92.8936  131.0488  117.4436 C   0  0  0  0  0
   92.2907  130.3775  119.8054 C   0  0  0  0  0
   91.0710  130.5035  120.4854 C   0  0  0  0  0
   90.7763  130.0806  121.8739 C   0  0  0  0  0
   89.4908  130.2815  122.3991 C   0  0  0  0  0
   89.1883  129.8929  123.7074 C   0  0  0  0  0
   90.1699  129.2991  124.5043 C   0  0  0  0  0
   91.4533  129.0942  123.9926 C   0  0  0  0  0
   91.7537  129.4833  122.6844 C   0  0  0  0  0
   93.5602  129.7588  120.3277 C   0  0  0  0  0
   93.7704  128.2841  119.9716 C   0  0  0  0  0
   94.7812  130.6302  120.2370 C   0  0  0  0  0
   95.5495  130.6809  119.0645 C   0  0  0  0  0
   96.6760  131.5040  118.9917 C   0  0  0  0  0
   97.0424  132.2842  120.0907 C   0  0  0  0  0
   96.2820  132.2413  121.2620 C   0  0  0  0  0
   95.1541  131.4182  121.3381 C   0  0  0  0  0
   90.1327  131.0878  119.6972 N   0  0  0  0  0
   93.8464  128.0724  118.5346 N   0  0  0  0  0
   87.9433  130.0923  124.2022 F   0  0  0  0  0
   94.4270  131.3932  122.4829 F   0  0  0  0  0
   90.5037  132.6349  115.1435 F   0  0  0  0  0
   92.7984  127.8803  117.8860 O   0  0  0  0  0
   95.0568  127.7539  117.9668 O   0  0  0  0  0
  2  3  1  0  0  0
  2 27  1  0  0  0
  4  5  1  0  0  0
  5  7  1  0  0  0
  6  1  1  0  0  0
  8 23  1  0  0  0
  8  9  1  0  0  0
 10 11  1  0  0  0
 11 25  1  0  0  0
 12 13  1  0  0  0
 14  9  1  0  0  0
 15  7  1  0  0  0
 15 16  1  0  0  0
 15 17  1  0  0  0
 16 24  1  0  0  0
 18 19  1  0  0  0
 20 21  1  0  0  0
 22 26  1  0  0  0
 22 17  1  0  0  0
 23  4  1  0  0  0
 24 29  1  0  0  0
  1  2  2  0  0  0
  3  4  2  0  0  0
  5  6  2  0  0  0
  7  8  2  0  0  0
  9 10  2  0  0  0
 11 12  2  0  0  0
 13 14  2  0  0  0
 17 18  2  0  0  0
 19 20  2  0  0  0
 21 22  2  0  0  0
 24 28  2  0  0  0
M  CHG  2  24   1  29  -1
M  END
> <rmsd>
0.209822014

$$$$
CHEMBL3353439_6N4B


 30 33  0  0  0  0  0  0  0  0999 V2000
   90.9873  132.4097  116.2039 C   0  0  0  0  0
   92.2538  131.8309  116.1028 C   0  0  0  0  0
   92.0536  130.9077  118.2899 C   0  0  0  0  0
   90.7724  131.4772  118.4174 C   0  0  0  0  0
   90.2426  132.2299  117.3697 C   0  0  0  0  0
   90.0480  131.2829  119.5850 C   0  0  0  0  0
   90.5794  130.5251  120.6317 C   0  0  0  0  0
   91.8694  129.9641  120.4739 C   0  0  0  0  0
   93.9244  129.6011  119.1845 C   0  0  0  0  0
   94.9527  130.5591  119.6897 C   0  0  0  0  0
   95.5277  131.4934  118.8208 C   0  0  0  0  0
   96.4742  132.4048  119.2984 C   0  0  0  0  0
   96.8447  132.3857  120.6465 C   0  0  0  0  0
   96.2676  131.4565  121.5175 C   0  0  0  0  0
   95.3210  130.5450  121.0398 C   0  0  0  0  0
   89.7655  130.3453  121.8592 C   0  0  0  0  0
   87.5219  130.8808  123.0541 C   0  0  0  0  0
   88.0135  131.6101  124.3110 C   0  0  0  0  0
   88.8741  130.7202  125.2042 C   0  0  0  0  0
   88.1428  129.4235  125.5277 C   0  0  0  0  0
   87.8678  128.6560  124.2407 C   0  0  0  0  0
   86.9716  129.4724  123.3130 C   0  0  0  0  0
   89.0027  128.5775  126.4423 C   0  0  0  0  0
   92.7549  131.1001  117.1349 N   0  0  0  0  0
   92.5800  130.1698  119.3171 N   0  0  0  0  0
   88.4633  130.9442  121.9358 N   0  0  0  0  0
   92.3714  129.2678  121.3999 O   0  0  0  0  0
   90.2115  129.6742  122.8270 O   0  0  0  0  0
   97.7617  133.2686  121.1093 F   0  0  0  0  0
   90.2813  133.4348  114.7618 Br  0  0  0  0  0
  1 30  1  0  0  0
  2 24  1  0  0  0
  3  4  1  0  0  0
  4  6  1  0  0  0
  5  1  1  0  0  0
  7  8  1  0  0  0
  7 16  1  0  0  0
  8 25  1  0  0  0
  9 25  1  0  0  0
  9 10  1  0  0  0
 11 12  1  0  0  0
 13 14  1  0  0  0
 13 29  1  0  0  0
 15 10  1  0  0  0
 16 26  1  0  0  0
 17 26  1  0  0  0
 17 18  1  0  0  0
 18 19  1  0  0  0
 19 20  1  0  0  0
 20 21  1  0  0  0
 20 23  1  0  0  0
 21 22  1  0  0  0
 22 17  1  0  0  0
 25  3  1  0  0  0
  1  2  2  0  0  0
  3 24  2  0  0  0
  4  5  2  0  0  0
  6  7  2  0  0  0
  8 27  2  0  0  0
 10 11  2  0  0  0
 12 13  2  0  0  0
 14 15  2  0  0  0
 16 28  2  0  0  0
M  END
> <rmsd>
0.225552738

$$$$
CHEMBL4438072_6N4B


 27 30  0  0  0  0  0  0  0  0999 V2000
   87.9791  130.0743  124.8238 C   0  0  0  0  0
   89.0522  130.2868  123.7773 C   0  0  0  0  0
   88.6501  131.4313  122.8662 C   0  0  0  0  0
   89.7097  131.6590  121.8036 C   0  0  0  0  0
   89.6294  130.5803  120.7351 C   0  0  0  0  0
   91.9945  130.6898  119.9287 C   0  0  0  0  0
   92.6610  130.9377  118.7278 C   0  0  0  0  0
   91.6743  131.1851  117.7774 C   0  0  0  0  0
   90.4708  131.0810  118.4324 C   0  0  0  0  0
   89.2524  131.2745  117.7794 C   0  0  0  0  0
   89.2853  131.5929  116.4121 C   0  0  0  0  0
   90.5156  131.7173  115.7362 C   0  0  0  0  0
   91.7290  131.5170  116.4164 C   0  0  0  0  0
   94.1280  130.8675  118.5415 C   0  0  0  0  0
   95.0627  131.0913  119.6775 C   0  0  0  0  0
   94.6912  131.9983  120.6831 C   0  0  0  0  0
   95.5359  132.2706  121.7596 C   0  0  0  0  0
   96.7758  131.6414  121.8521 C   0  0  0  0  0
   97.1756  130.7353  120.8698 C   0  0  0  0  0
   98.4186  130.1058  120.9811 C   0  0  0  0  0
   98.8288  129.1860  120.0138 C   0  0  0  0  0
   97.9967  128.8900  118.9325 C   0  0  0  0  0
   96.7530  129.5156  118.8132 C   0  0  0  0  0
   96.3245  130.4500  119.7707 C   0  0  0  0  0
   90.6612  130.7902  119.7297 N   0  0  0  0  0
   92.9004  131.6774  115.7567 F   0  0  0  0  0
   94.5909  130.6007  117.4009 O   0  0  0  0  0
  1  2  1  0  0  0
  2  3  1  0  0  0
  3  4  1  0  0  0
  4  5  1  0  0  0
  5 25  1  0  0  0
  7  8  1  0  0  0
  7 14  1  0  0  0
  9 10  1  0  0  0
  9 25  1  0  0  0
 11 12  1  0  0  0
 13 26  1  0  0  0
 13  8  1  0  0  0
 14 15  1  0  0  0
 16 17  1  0  0  0
 18 19  1  0  0  0
 20 21  1  0  0  0
 22 23  1  0  0  0
 24 15  1  0  0  0
 24 19  1  0  0  0
 25  6  1  0  0  0
  6  7  2  0  0  0
  8  9  2  0  0  0
 10 11  2  0  0  0
 12 13  2  0  0  0
 14 27  2  0  0  0
 15 16  2  0  0  0
 17 18  2  0  0  0
 19 20  2  0  0  0
 21 22  2  0  0  0
 23 24  2  0  0  0
M  END
> <rmsd>
0.57083869

$$$$
CHEMBL508336_6N4B


 28 31  0  0  0  0  0  0  0  0999 V2000
   97.6899  133.2301  121.2600 F   0  0  0  0  0
   96.7779  132.3541  120.7747 C   0  0  0  0  0
   96.1066  131.4900  121.6452 C   0  0  0  0  0
   95.1652  130.5859  121.1441 C   0  0  0  0  0
   94.8962  130.5419  119.7715 C   0  0  0  0  0
   93.8736  129.5924  119.2393 C   0  0  0  0  0
   91.7444  130.0959  120.3488 C   0  0  0  0  0
   90.4676  130.7070  120.3781 C   0  0  0  0  0
   90.0434  131.4194  119.2526 C   0  0  0  0  0
   90.8581  131.5217  118.1338 C   0  0  0  0  0
   90.4348  132.2287  117.0085 C   0  0  0  0  0
   91.2682  132.3167  115.8929 C   0  0  0  0  0
   92.5170  131.6922  115.9218 C   0  0  0  0  0
   92.1231  130.9050  118.1356 C   0  0  0  0  0
   89.5552  130.6291  121.5476 C   0  0  0  0  0
   89.1119  129.8019  123.9340 C   0  0  0  0  0
   87.8141  129.0558  123.6197 C   0  0  0  0  0
   86.9626  128.9252  124.8793 C   0  0  0  0  0
   86.6625  130.3047  125.4590 C   0  0  0  0  0
   87.9640  131.0281  125.7943 C   0  0  0  0  0
   88.8235  131.1757  124.5420 C   0  0  0  0  0
   95.5652  131.4113  118.9027 C   0  0  0  0  0
   96.5066  132.3155  119.4036 C   0  0  0  0  0
   92.5449  130.2113  119.2389 N   0  0  0  0  0
   92.9139  131.0072  117.0281 N   0  0  0  0  0
   89.9402  129.9278  122.7385 N   0  0  0  0  0
   92.1525  129.4373  121.3454 O   0  0  0  0  0
   88.4258  131.1898  121.4926 O   0  0  0  0  0
  2  1  1  0  0  0
  3  4  1  0  0  0
  5 22  1  0  0  0
  6  5  1  0  0  0
  6 24  1  0  0  0
  7  8  1  0  0  0
  8 15  1  0  0  0
  9 10  1  0  0  0
 11 12  1  0  0  0
 13 25  1  0  0  0
 14 24  1  0  0  0
 14 10  1  0  0  0
 15 26  1  0  0  0
 16 26  1  0  0  0
 16 17  1  0  0  0
 17 18  1  0  0  0
 18 19  1  0  0  0
 19 20  1  0  0  0
 20 21  1  0  0  0
 21 16  1  0  0  0
 23  2  1  0  0  0
 24  7  1  0  0  0
  2  3  2  0  0  0
  4  5  2  0  0  0
  7 27  2  0  0  0
  8  9  2  0  0  0
 10 11  2  0  0  0
 12 13  2  0  0  0
 14 25  2  0  0  0
 15 28  2  0  0  0
 22 23  2  0  0  0
M  END
> <rmsd>
0.337416053

$$$$
CHEMBL3942960_6N4B


 28 31  0  0  0  0  0  0  0  0999 V2000
   86.8725  129.2071  124.6580 C   0  0  0  0  0
   87.7866  129.3364  123.4592 C   0  0  0  0  0
   87.3706  130.5717  124.2313 C   0  0  0  0  0
   88.5082  130.9935  125.1503 C   0  0  0  0  0
   89.1272  132.3343  124.7357 C   0  0  0  0  0
   88.2293  133.5161  124.9745 C   0  0  0  0  0
   90.6721  131.5081  122.8979 C   0  0  0  0  0
   91.0282  131.4755  121.4718 C   0  0  0  0  0
   92.4483  130.6508  119.7429 C   0  0  0  0  0
   91.7242  131.3734  118.7711 C   0  0  0  0  0
   90.6558  132.1739  119.1949 C   0  0  0  0  0
   90.3001  132.2222  120.5414 C   0  0  0  0  0
   92.1260  131.3714  117.3201 C   0  0  0  0  0
   90.9217  131.1572  116.4153 C   0  0  0  0  0
   91.8568  130.0076  116.7049 C   0  0  0  0  0
   93.6502  129.8362  119.3783 C   0  0  0  0  0
   94.9007  130.6212  119.5885 C   0  0  0  0  0
   95.5312  130.6140  120.8382 C   0  0  0  0  0
   96.6919  131.3667  121.0409 C   0  0  0  0  0
   97.2216  132.1302  119.9961 C   0  0  0  0  0
   96.5898  132.1428  118.7488 C   0  0  0  0  0
   95.4292  131.3904  118.5454 C   0  0  0  0  0
   88.6351  134.6703  124.6777 O   0  0  0  0  0
   91.3409  130.8314  123.7256 O   0  0  0  0  0
   86.9410  133.3620  125.5649 N   0  0  0  0  0
   89.5710  132.3053  123.3461 N   0  0  0  0  0
   92.0799  130.7207  121.0513 N   0  0  0  0  0
   98.3460  132.8592  120.1929 F   0  0  0  0  0
  1  2  1  0  0  0
  2  3  1  0  0  0
  3  4  1  0  0  0
  3  1  1  0  0  0
  5  4  1  0  0  0
  5  6  1  0  0  0
  5 26  1  0  0  0
  6 25  1  0  0  0
  7  8  1  0  0  0
  9 27  1  0  0  0
 10 11  1  0  0  0
 12  8  1  0  0  0
 13 10  1  0  0  0
 13 14  1  0  0  0
 14 15  1  0  0  0
 15 13  1  0  0  0
 16  9  1  0  0  0
 16 17  1  0  0  0
 18 19  1  0  0  0
 20 21  1  0  0  0
 20 28  1  0  0  0
 22 17  1  0  0  0
 26  7  1  0  0  0
  6 23  2  0  0  0
  7 24  2  0  0  0
  8 27  2  0  0  0
  9 10  2  0  0  0
 11 12  2  0  0  0
 17 18  2  0  0  0
 19 20  2  0  0  0
 21 22  2  0  0  0
M  END
> <rmsd>
0.849516988

$$$$
CHEMBL370560_5TGZ


 30 34  0  0  0  0  0  0  0  0999 V2000
   88.7419  130.0336  121.0951 O   0  0  0  0  0
   89.8930  130.3239  121.5203 C   0  0  0  0  0
   90.9684  130.3950  120.6474 C   0  0  0  0  0
   92.7002  130.1975  117.5867 C   0  0  0  0  0
   93.7316  129.2824  117.3279 C   0  0  0  0  0
   94.1502  129.0385  116.0179 C   0  0  0  0  0
   93.5366  129.7028  114.9542 C   0  0  0  0  0
   92.5037  130.6105  115.2002 C   0  0  0  0  0
   92.0775  130.8581  116.5091 C   0  0  0  0  0
   93.0368  130.7224  120.0176 C   0  0  0  0  0
   94.4708  131.0936  120.0091 C   0  0  0  0  0
   95.2482  130.9235  121.1644 C   0  0  0  0  0
   96.5961  131.2930  121.1735 C   0  0  0  0  0
   97.1769  131.8426  120.0280 C   0  0  0  0  0
   96.4088  132.0278  118.8761 C   0  0  0  0  0
   95.0611  131.6582  118.8689 C   0  0  0  0  0
   92.2012  130.7070  121.1123 C   0  0  0  0  0
   91.3889  130.9084  123.2883 C   0  0  0  0  0
   89.0683  130.5314  123.8640 C   0  0  0  0  0
   87.9730  131.5721  123.5930 C   0  0  0  0  0
   86.7559  131.2944  124.4694 C   0  0  0  0  0
   86.1528  129.9071  124.2012 C   0  0  0  0  0
   87.1248  128.9250  123.5357 C   0  0  0  0  0
   88.5463  129.0977  124.0677 C   0  0  0  0  0
   91.0018  130.2067  119.3168 N   0  0  0  0  0
   92.2629  130.4102  118.9368 N   0  0  0  0  0
   92.4397  130.9767  122.4166 N   0  0  0  0  0
   90.1257  130.5844  122.8537 N   0  0  0  0  0
   90.7977  132.0332  116.7647 Cl  0  0  0  0  0
   98.8648  132.3045  120.0379 Cl  0  0  0  0  0
  2  3  1  0  0  0
  5  6  1  0  0  0
  7  8  1  0  0  0
  9 29  1  0  0  0
  9  4  1  0  0  0
 10 11  1  0  0  0
 12 13  1  0  0  0
 14 30  1  0  0  0
 14 15  1  0  0  0
 16 11  1  0  0  0
 17 27  1  0  0  0
 17  3  1  0  0  0
 18 28  1  0  0  0
 19 28  1  0  0  0
 19 20  1  0  0  0
 20 21  1  0  0  0
 21 22  1  0  0  0
 22 23  1  0  0  0
 23 24  1  0  0  0
 24 19  1  0  0  0
 26 25  1  0  0  0
 26  4  1  0  0  0
 26 10  1  0  0  0
 28  2  1  0  0  0
  2  1  2  0  0  0
  3 25  2  0  0  0
  4  5  2  0  0  0
  6  7  2  0  0  0
  8  9  2  0  0  0
 10 17  2  0  0  0
 11 12  2  0  0  0
 13 14  2  0  0  0
 15 16  2  0  0  0
 18 27  2  0  0  0
M  END
> <rmsd>
0.70296663

$$$$
CHEMBL1760645_5U09


 32 34  0  0  0  0  0  0  0  0999 V2000
   87.6047  131.1393  124.0613 C   0  0  0  0  0
   88.7558  130.2451  124.4965 C   0  0  0  0  0
   88.6411  128.8926  123.8095 C   0  0  0  0  0
   88.7162  130.0570  126.0090 C   0  0  0  0  0
   90.0877  130.8996  124.1385 C   0  0  0  0  0
   91.2479  130.5322  121.9254 C   0  0  0  0  0
   91.3077  130.7863  120.4733 C   0  0  0  0  0
   90.3455  131.5280  119.7807 C   0  0  0  0  0
   90.7867  131.5030  118.4728 C   0  0  0  0  0
   90.2265  132.0842  117.3379 C   0  0  0  0  0
   90.8955  131.9062  116.1132 C   0  0  0  0  0
   90.3570  132.4864  114.9159 C   0  0  0  0  0
   92.0935  131.1621  116.0542 C   0  0  0  0  0
   92.6362  130.5870  117.2167 C   0  0  0  0  0
   91.9485  130.7806  118.4159 C   0  0  0  0  0
   93.4800  129.5773  119.9848 C   0  0  0  0  0
   94.6373  130.5002  120.1715 C   0  0  0  0  0
   94.8419  131.1308  121.4027 C   0  0  0  0  0
   95.9106  132.0154  121.5668 C   0  0  0  0  0
   96.7730  132.2742  120.4979 C   0  0  0  0  0
   96.5709  131.6491  119.2562 C   0  0  0  0  0
   98.5322  132.7694  118.1913 C   0  0  0  0  0
   95.4984  130.7646  119.1015 C   0  0  0  0  0
   87.5201  129.4579  126.4148 O   0  0  0  0  0
   92.1014  129.7894  122.4809 O   0  0  0  0  0
   97.4130  131.8862  118.1624 O   0  0  0  0  0
   90.2048  131.1238  122.7028 N   0  0  0  0  0
   89.9231  132.9542  113.9504 N   0  0  0  0  0
   92.2792  130.3324  119.6375 N   0  0  0  0  0
   98.1144  134.0552  118.4841 F   0  0  0  0  0
   99.4451  132.3483  119.1414 F   0  0  0  0  0
   99.1409  132.7668  116.9513 F   0  0  0  0  0
  1  2  1  0  0  0
  2  3  1  0  0  0
  2  4  1  0  0  0
  2  5  1  0  0  0
  4 24  1  0  0  0
  5 27  1  0  0  0
  6  7  1  0  0  0
  8  9  1  0  0  0
 10 11  1  0  0  0
 11 12  1  0  0  0
 13 14  1  0  0  0
 15 29  1  0  0  0
 15  9  1  0  0  0
 16 29  1  0  0  0
 16 17  1  0  0  0
 18 19  1  0  0  0
 20 21  1  0  0  0
 21 26  1  0  0  0
 22 26  1  0  0  0
 22 30  1  0  0  0
 22 31  1  0  0  0
 22 32  1  0  0  0
 23 17  1  0  0  0
 27  6  1  0  0  0
 29  7  1  0  0  0
  6 25  2  0  0  0
  7  8  2  0  0  0
  9 10  2  0  0  0
 11 13  2  0  0  0
 14 15  2  0  0  0
 17 18  2  0  0  0
 19 20  2  0  0  0
 21 23  2  0  0  0
 12 28  3  0  0  0
M  END
> <rmsd>
0.170830607

$$$$
CHEMBL1760663_5U09


 32 34  0  0  0  0  0  0  0  0999 V2000
   86.6216  130.3715  124.4550 C   0  0  0  0  0
   88.1159  130.5906  124.3533 C   0  0  0  0  0
   88.8206  129.3694  124.9148 C   0  0  0  0  0
   88.4773  130.8077  122.8840 C   0  0  0  0  0
   89.9313  131.2168  122.6745 C   0  0  0  0  0
   91.6151  129.6351  121.5722 C   0  0  0  0  0
   91.5478  130.2825  120.2375 C   0  0  0  0  0
   90.4698  131.0468  119.7770 C   0  0  0  0  0
   90.8373  131.4123  118.4983 C   0  0  0  0  0
   90.1547  132.1921  117.5682 C   0  0  0  0  0
   90.7735  132.4214  116.3262 C   0  0  0  0  0
   90.1091  133.2202  115.3364 C   0  0  0  0  0
   92.0452  131.8741  116.0493 C   0  0  0  0  0
   92.7109  131.0906  117.0085 C   0  0  0  0  0
   92.0684  130.8791  118.2294 C   0  0  0  0  0
   93.8142  129.5262  119.3988 C   0  0  0  0  0
   94.8460  130.5073  119.8428 C   0  0  0  0  0
   95.6953  131.0990  118.9033 C   0  0  0  0  0
   96.6451  132.0383  119.3126 C   0  0  0  0  0
   96.7422  132.3909  120.6613 C   0  0  0  0  0
   95.8878  131.8056  121.6105 C   0  0  0  0  0
   96.8736  133.0777  123.5194 C   0  0  0  0  0
   94.9414  130.8650  121.1920 C   0  0  0  0  0
   88.4595  131.7153  125.1052 O   0  0  0  0  0
   92.4179  128.6827  121.7540 O   0  0  0  0  0
   95.9530  132.1382  122.9692 O   0  0  0  0  0
   90.7881  130.0413  122.6702 N   0  0  0  0  0
   89.5725  133.8641  114.5387 N   0  0  0  0  0
   92.5119  130.1769  119.2836 N   0  0  0  0  0
   96.6740  134.3246  122.9547 F   0  0  0  0  0
   98.1723  132.6625  123.2851 F   0  0  0  0  0
   96.6689  133.1647  124.8828 F   0  0  0  0  0
  1  2  1  0  0  0
  2  3  1  0  0  0
  2 24  1  0  0  0
  2  4  1  0  0  0
  4  5  1  0  0  0
  5 27  1  0  0  0
  6  7  1  0  0  0
  8  9  1  0  0  0
 10 11  1  0  0  0
 11 12  1  0  0  0
 13 14  1  0  0  0
 15 29  1  0  0  0
 15  9  1  0  0  0
 16 29  1  0  0  0
 16 17  1  0  0  0
 18 19  1  0  0  0
 20 21  1  0  0  0
 21 26  1  0  0  0
 22 26  1  0  0  0
 22 30  1  0  0  0
 22 31  1  0  0  0
 22 32  1  0  0  0
 23 17  1  0  0  0
 27  6  1  0  0  0
 29  7  1  0  0  0
  6 25  2  0  0  0
  7  8  2  0  0  0
  9 10  2  0  0  0
 11 13  2  0  0  0
 14 15  2  0  0  0
 17 18  2  0  0  0
 19 20  2  0  0  0
 21 23  2  0  0  0
 12 28  3  0  0  0
M  END
> <rmsd>
0.235148728

$$$$
CHEMBL3354942_6N4B


 29 33  0  0  0  0  0  0  0  0999 V2000
   87.4574  131.0932  123.2645 C   0  0  0  0  0
   88.4061  129.9099  123.4353 C   0  0  0  0  0
   88.9333  129.9585  124.8580 C   0  0  0  0  0
   87.7243  128.5723  123.2087 C   0  0  0  0  0
   86.3448  128.4789  122.9500 C   0  0  0  0  0
   85.7419  127.2355  122.7413 C   0  0  0  0  0
   86.5098  126.0699  122.7889 C   0  0  0  0  0
   87.8804  126.1470  123.0457 C   0  0  0  0  0
   88.4839  127.3902  123.2545 C   0  0  0  0  0
   89.4376  130.0799  121.0912 C   0  0  0  0  0
   90.6536  130.2272  120.2830 C   0  0  0  0  0
   92.0093  130.6686  118.6516 C   0  0  0  0  0
   90.7259  130.3673  118.9111 C   0  0  0  0  0
   89.8014  130.9978  117.9485 C   0  0  0  0  0
   90.7492  131.6570  116.9168 C   0  0  0  0  0
   92.1945  131.4774  117.4204 C   0  0  0  0  0
   91.5008  132.8252  117.5351 C   0  0  0  0  0
   94.0909  131.0937  119.9736 C   0  0  0  0  0
   94.6316  131.3420  121.2540 C   0  0  0  0  0
   95.9746  131.7067  121.3914 C   0  0  0  0  0
   96.7921  131.8247  120.2662 C   0  0  0  0  0
   96.2697  131.5775  118.9964 C   0  0  0  0  0
   94.9292  131.2135  118.8526 C   0  0  0  0  0
   89.5374  130.0629  122.5211 N   0  0  0  0  0
   91.8870  130.4147  120.8046 N   0  0  0  0  0
   92.7123  130.7042  119.8043 N   0  0  0  0  0
   88.3160  129.9628  120.5272 O   0  0  0  0  0
   98.0920  132.1781  120.4071 F   0  0  0  0  0
   93.8697  131.2448  122.3713 F   0  0  0  0  0
  1  2  1  0  0  0
  2  3  1  0  0  0
  2  4  1  0  0  0
  2 24  1  0  0  0
  5  6  1  0  0  0
  7  8  1  0  0  0
  9  4  1  0  0  0
 10 11  1  0  0  0
 13 11  1  0  0  0
 14 13  1  0  0  0
 15 14  1  0  0  0
 15 16  1  0  0  0
 16 17  1  0  0  0
 16 12  1  0  0  0
 17 15  1  0  0  0
 19 20  1  0  0  0
 19 29  1  0  0  0
 21 22  1  0  0  0
 21 28  1  0  0  0
 23 18  1  0  0  0
 24 10  1  0  0  0
 26 25  1  0  0  0
 26 12  1  0  0  0
 26 18  1  0  0  0
  4  5  2  0  0  0
  6  7  2  0  0  0
  8  9  2  0  0  0
 10 27  2  0  0  0
 11 25  2  0  0  0
 12 13  2  0  0  0
 18 19  2  0  0  0
 20 21  2  0  0  0
 22 23  2  0  0  0
M  END
> <rmsd>
0.438423693

$$$$
CHEMBL2206842_6N4B


 27 30  0  0  0  0  0  0  0  0999 V2000
   87.8635  129.8743  124.5305 C   0  0  0  0  0
   87.5666  130.5613  123.2147 C   0  0  0  0  0
   88.2910  129.8427  122.0967 C   0  0  0  0  0
   88.0044  130.5378  120.7798 C   0  0  0  0  0
   88.7531  129.8575  119.6437 C   0  0  0  0  0
   91.0953  129.9210  120.5396 C   0  0  0  0  0
   92.3185  130.4774  120.1665 C   0  0  0  0  0
   93.5814  130.3443  120.9208 C   0  0  0  0  0
   94.8164  131.0024  120.4730 C   0  0  0  0  0
   95.7203  130.1872  119.7813 C   0  0  0  0  0
   96.8878  130.7092  119.2340 C   0  0  0  0  0
   97.1671  132.0647  119.3620 C   0  0  0  0  0
   96.2915  132.9041  120.0509 C   0  0  0  0  0
   96.6158  134.2575  120.1462 C   0  0  0  0  0
   95.7866  135.1319  120.8390 C   0  0  0  0  0
   94.6330  134.6541  121.4527 C   0  0  0  0  0
   94.2787  133.3039  121.3756 C   0  0  0  0  0
   95.1001  132.3920  120.6454 C   0  0  0  0  0
   92.0889  131.1645  118.9851 C   0  0  0  0  0
   92.9416  131.9012  118.1624 C   0  0  0  0  0
   92.3935  132.4864  117.0079 C   0  0  0  0  0
   91.0253  132.3248  116.7030 C   0  0  0  0  0
   90.1884  131.5760  117.5488 C   0  0  0  0  0
   90.7605  131.0073  118.6879 C   0  0  0  0  0
   90.1538  130.2626  119.6282 N   0  0  0  0  0
   93.6161  129.6192  121.9511 O   0  0  0  0  0
   92.8364  132.8684  122.2843 Cl  0  0  0  0  0
  1  2  1  0  0  0
  2  3  1  0  0  0
  3  4  1  0  0  0
  4  5  1  0  0  0
  5 25  1  0  0  0
  7  8  1  0  0  0
  7 19  1  0  0  0
  8  9  1  0  0  0
 10 11  1  0  0  0
 12 13  1  0  0  0
 14 15  1  0  0  0
 16 17  1  0  0  0
 17 27  1  0  0  0
 18  9  1  0  0  0
 18 13  1  0  0  0
 20 21  1  0  0  0
 22 23  1  0  0  0
 24 25  1  0  0  0
 24 19  1  0  0  0
 25  6  1  0  0  0
  6  7  2  0  0  0
  8 26  2  0  0  0
  9 10  2  0  0  0
 11 12  2  0  0  0
 13 14  2  0  0  0
 15 16  2  0  0  0
 17 18  2  0  0  0
 19 20  2  0  0  0
 21 22  2  0  0  0
 23 24  2  0  0  0
M  END
> <rmsd>
0.478521258

$$$$
CHEMBL2206839_6N4B


 28 31  0  0  0  0  0  0  0  0999 V2000
   87.1958  129.6010  124.8135 C   0  0  0  0  0
   88.0764  130.4477  123.9193 C   0  0  0  0  0
   88.6058  129.5989  122.7831 C   0  0  0  0  0
   89.4863  130.4456  121.8898 C   0  0  0  0  0
   90.0195  129.5939  120.7529 C   0  0  0  0  0
   92.1051  130.8922  120.1734 C   0  0  0  0  0
   92.7577  130.7629  121.5111 C   0  0  0  0  0
   92.6170  131.5938  119.0759 C   0  0  0  0  0
   93.8981  132.3274  118.9722 C   0  0  0  0  0
   95.1093  131.8910  119.7065 C   0  0  0  0  0
   95.3917  130.5202  119.7726 C   0  0  0  0  0
   96.5323  130.0529  120.4232 C   0  0  0  0  0
   97.4226  130.9449  121.0199 C   0  0  0  0  0
   97.1686  132.3263  120.9662 C   0  0  0  0  0
   98.0501  133.2363  121.5660 C   0  0  0  0  0
   97.7932  134.6077  121.5222 C   0  0  0  0  0
   96.6502  135.0841  120.8798 C   0  0  0  0  0
   95.7628  134.1906  120.2771 C   0  0  0  0  0
   96.0072  132.8075  120.3039 C   0  0  0  0  0
   91.6385  131.5047  118.1005 C   0  0  0  0  0
   91.5959  132.0135  116.8024 C   0  0  0  0  0
   90.4509  131.7443  116.0322 C   0  0  0  0  0
   89.3895  130.9828  116.5661 C   0  0  0  0  0
   89.4587  130.4801  117.8773 C   0  0  0  0  0
   90.6071  130.7609  118.6194 C   0  0  0  0  0
   90.8783  130.3910  119.8839 N   0  0  0  0  0
   93.9664  133.3274  118.2076 O   0  0  0  0  0
   99.1250  130.1364  121.9858 I   0  0  0  0  0
  1  2  1  0  0  0
  2  3  1  0  0  0
  3  4  1  0  0  0
  4  5  1  0  0  0
  5 26  1  0  0  0
  7  6  1  0  0  0
  8  9  1  0  0  0
  8 20  1  0  0  0
  9 10  1  0  0  0
 11 12  1  0  0  0
 13 28  1  0  0  0
 13 14  1  0  0  0
 15 16  1  0  0  0
 17 18  1  0  0  0
 19 10  1  0  0  0
 19 14  1  0  0  0
 21 22  1  0  0  0
 23 24  1  0  0  0
 25 26  1  0  0  0
 25 20  1  0  0  0
 26  6  1  0  0  0
  6  8  2  0  0  0
  9 27  2  0  0  0
 10 11  2  0  0  0
 12 13  2  0  0  0
 14 15  2  0  0  0
 16 17  2  0  0  0
 18 19  2  0  0  0
 20 21  2  0  0  0
 22 23  2  0  0  0
 24 25  2  0  0  0
M  END
> <rmsd>
0.552981913

$$$$
CHEMBL2206835_6N4B


 28 31  0  0  0  0  0  0  0  0999 V2000
   87.1951  129.6009  124.8133 C   0  0  0  0  0
   88.0758  130.4477  123.9191 C   0  0  0  0  0
   88.6053  129.5989  122.7830 C   0  0  0  0  0
   89.4859  130.4457  121.8897 C   0  0  0  0  0
   90.0193  129.5942  120.7528 C   0  0  0  0  0
   92.1048  130.8925  120.1735 C   0  0  0  0  0
   92.7573  130.7631  121.5113 C   0  0  0  0  0
   92.6166  131.5943  119.0762 C   0  0  0  0  0
   93.8978  132.3280  118.9726 C   0  0  0  0  0
   95.1091  131.8914  119.7067 C   0  0  0  0  0
   95.3915  130.5206  119.7726 C   0  0  0  0  0
   96.5323  130.0529  120.4227 C   0  0  0  0  0
   97.4226  130.9452  121.0191 C   0  0  0  0  0
   97.1688  132.3267  120.9657 C   0  0  0  0  0
   98.0507  133.2370  121.5654 C   0  0  0  0  0
   97.7937  134.6083  121.5216 C   0  0  0  0  0
   96.6504  135.0846  120.8796 C   0  0  0  0  0
   95.7628  134.1911  120.2773 C   0  0  0  0  0
   96.0072  132.8080  120.3038 C   0  0  0  0  0
   91.6381  131.5053  118.1007 C   0  0  0  0  0
   91.5956  132.0143  116.8028 C   0  0  0  0  0
   90.4506  131.7451  116.0324 C   0  0  0  0  0
   89.3892  130.9836  116.5661 C   0  0  0  0  0
   89.4585  130.4806  117.8773 C   0  0  0  0  0
   90.6068  130.7613  118.6196 C   0  0  0  0  0
   90.8780  130.3912  119.8840 N   0  0  0  0  0
   93.9659  133.3282  118.2083 O   0  0  0  0  0
   98.9675  130.2264  121.8956 Br  0  0  0  0  0
  1  2  1  0  0  0
  2  3  1  0  0  0
  3  4  1  0  0  0
  4  5  1  0  0  0
  5 26  1  0  0  0
  7  6  1  0  0  0
  8  9  1  0  0  0
  8 20  1  0  0  0
  9 10  1  0  0  0
 11 12  1  0  0  0
 13 28  1  0  0  0
 13 14  1  0  0  0
 15 16  1  0  0  0
 17 18  1  0  0  0
 19 10  1  0  0  0
 19 14  1  0  0  0
 21 22  1  0  0  0
 23 24  1  0  0  0
 25 26  1  0  0  0
 25 20  1  0  0  0
 26  6  1  0  0  0
  6  8  2  0  0  0
  9 27  2  0  0  0
 10 11  2  0  0  0
 12 13  2  0  0  0
 14 15  2  0  0  0
 16 17  2  0  0  0
 18 19  2  0  0  0
 20 21  2  0  0  0
 22 23  2  0  0  0
 24 25  2  0  0  0
M  END
> <rmsd>
0.552981317

$$$$
CHEMBL2206860_6N4B


 28 31  0  0  0  0  0  0  0  0999 V2000
   87.1955  129.6015  124.8134 C   0  0  0  0  0
   88.0763  130.4481  123.9193 C   0  0  0  0  0
   88.6058  129.5992  122.7832 C   0  0  0  0  0
   89.4866  130.4459  121.8900 C   0  0  0  0  0
   90.0200  129.5943  120.7532 C   0  0  0  0  0
   92.1056  130.8925  120.1738 C   0  0  0  0  0
   92.7581  130.7632  121.5115 C   0  0  0  0  0
   92.6174  131.5942  119.0763 C   0  0  0  0  0
   93.8985  132.3278  118.9728 C   0  0  0  0  0
   95.1098  131.8915  119.7069 C   0  0  0  0  0
   95.3923  130.5206  119.7728 C   0  0  0  0  0
   96.5331  130.0529  120.4229 C   0  0  0  0  0
   97.4234  130.9452  121.0192 C   0  0  0  0  0
   97.1695  132.3271  120.9660 C   0  0  0  0  0
   98.0515  133.2378  121.5657 C   0  0  0  0  0
   97.7941  134.6090  121.5217 C   0  0  0  0  0
   96.6507  135.0849  120.8797 C   0  0  0  0  0
   95.7633  134.1911  120.2774 C   0  0  0  0  0
   96.0078  132.8080  120.3040 C   0  0  0  0  0
   91.6389  131.5051  118.1009 C   0  0  0  0  0
   91.5964  132.0140  116.8029 C   0  0  0  0  0
   90.4515  131.7447  116.0326 C   0  0  0  0  0
   89.3900  130.9832  116.5663 C   0  0  0  0  0
   89.4593  130.4805  117.8776 C   0  0  0  0  0
   90.6076  130.7612  118.6198 C   0  0  0  0  0
   90.8787  130.3913  119.8842 N   0  0  0  0  0
   93.9667  133.3280  118.2083 O   0  0  0  0  0
   98.8435  130.2917  121.8252 Cl  0  0  0  0  0
  1  2  1  0  0  0
  2  3  1  0  0  0
  3  4  1  0  0  0
  4  5  1  0  0  0
  5 26  1  0  0  0
  7  6  1  0  0  0
  8  9  1  0  0  0
  8 20  1  0  0  0
  9 10  1  0  0  0
 11 12  1  0  0  0
 13 28  1  0  0  0
 13 14  1  0  0  0
 15 16  1  0  0  0
 17 18  1  0  0  0
 19 10  1  0  0  0
 19 14  1  0  0  0
 21 22  1  0  0  0
 23 24  1  0  0  0
 25 26  1  0  0  0
 25 20  1  0  0  0
 26  6  1  0  0  0
  6  8  2  0  0  0
  9 27  2  0  0  0
 10 11  2  0  0  0
 12 13  2  0  0  0
 14 15  2  0  0  0
 16 17  2  0  0  0
 18 19  2  0  0  0
 20 21  2  0  0  0
 22 23  2  0  0  0
 24 25  2  0  0  0
M  END
> <rmsd>
0.553082585

$$$$
CHEMBL2206838_6N4B


 27 30  0  0  0  0  0  0  0  0999 V2000
   88.1426  129.8320  124.5908 C   0  0  0  0  0
   87.8353  130.6689  123.3673 C   0  0  0  0  0
   88.3751  129.9761  122.1346 C   0  0  0  0  0
   88.0755  130.8178  120.9095 C   0  0  0  0  0
   88.6341  130.1560  119.6593 C   0  0  0  0  0
   91.0342  129.8637  120.3271 C   0  0  0  0  0
   92.2817  130.2940  119.8753 C   0  0  0  0  0
   93.5806  129.8993  120.4569 C   0  0  0  0  0
   94.8056  130.7094  120.2637 C   0  0  0  0  0
   94.7190  132.0995  120.4136 C   0  0  0  0  0
   95.8458  132.9076  120.2727 C   0  0  0  0  0
   97.0889  132.3450  119.9845 C   0  0  0  0  0
   97.2079  130.9524  119.8354 C   0  0  0  0  0
   98.4488  130.3704  119.5418 C   0  0  0  0  0
   98.5653  128.9883  119.3846 C   0  0  0  0  0
   97.4412  128.1728  119.5171 C   0  0  0  0  0
   96.1982  128.7370  119.8099 C   0  0  0  0  0
   96.0619  130.1249  119.9785 C   0  0  0  0  0
   92.0404  131.0849  118.7633 C   0  0  0  0  0
   92.9084  131.7231  117.8766 C   0  0  0  0  0
   92.3425  132.4350  116.8046 C   0  0  0  0  0
   90.9424  132.4834  116.6358 C   0  0  0  0  0
   90.0910  131.8168  117.5344 C   0  0  0  0  0
   90.6812  131.1221  118.5917 C   0  0  0  0  0
   90.0676  130.3944  119.5407 N   0  0  0  0  0
   93.6362  128.8574  121.1646 O   0  0  0  0  0
   98.7397  133.6568  119.7868 I   0  0  0  0  0
  1  2  1  0  0  0
  2  3  1  0  0  0
  3  4  1  0  0  0
  4  5  1  0  0  0
  5 25  1  0  0  0
  7  8  1  0  0  0
  7 19  1  0  0  0
  8  9  1  0  0  0
 10 11  1  0  0  0
 12 27  1  0  0  0
 12 13  1  0  0  0
 14 15  1  0  0  0
 16 17  1  0  0  0
 18  9  1  0  0  0
 18 13  1  0  0  0
 20 21  1  0  0  0
 22 23  1  0  0  0
 24 25  1  0  0  0
 24 19  1  0  0  0
 25  6  1  0  0  0
  6  7  2  0  0  0
  8 26  2  0  0  0
  9 10  2  0  0  0
 11 12  2  0  0  0
 13 14  2  0  0  0
 15 16  2  0  0  0
 17 18  2  0  0  0
 19 20  2  0  0  0
 21 22  2  0  0  0
 23 24  2  0  0  0
M  END
> <rmsd>
0.349742174

$$$$
CHEMBL3354949_6N4B


 29 33  0  0  0  0  0  0  0  0999 V2000
   88.8553  130.7128  124.8975 C   0  0  0  0  0
   88.3271  130.6550  123.4772 C   0  0  0  0  0
   87.5108  129.3777  123.3326 C   0  0  0  0  0
   89.3834  130.4640  121.1382 C   0  0  0  0  0
   90.6118  130.4586  120.3355 C   0  0  0  0  0
   92.0002  130.6593  118.6841 C   0  0  0  0  0
   90.7014  130.4489  118.9575 C   0  0  0  0  0
   89.8164  131.0200  117.9231 C   0  0  0  0  0
   90.8031  131.5217  116.8406 C   0  0  0  0  0
   92.2340  131.3255  117.3780 C   0  0  0  0  0
   91.6070  132.7100  117.3440 C   0  0  0  0  0
   94.0891  131.1239  119.9809 C   0  0  0  0  0
   94.9419  131.0807  118.8651 C   0  0  0  0  0
   96.2971  131.3950  118.9869 C   0  0  0  0  0
   96.8198  131.7549  120.2294 C   0  0  0  0  0
   95.9877  131.7996  121.3493 C   0  0  0  0  0
   94.6299  131.4854  121.2338 C   0  0  0  0  0
   87.4567  131.8706  123.2379 C   0  0  0  0  0
   85.4127  133.0224  123.6619 C   0  0  0  0  0
   85.8389  134.1133  122.9032 C   0  0  0  0  0
   87.1019  134.0793  122.3127 C   0  0  0  0  0
   87.9181  132.9607  122.4821 C   0  0  0  0  0
   89.4705  130.6091  122.5624 N   0  0  0  0  0
   91.8486  130.6420  120.8501 N   0  0  0  0  0
   92.6949  130.7834  119.8357 N   0  0  0  0  0
   86.2223  131.9401  123.8154 N   0  0  0  0  0
   88.2616  130.3435  120.5752 O   0  0  0  0  0
   93.8544  131.5473  122.3443 F   0  0  0  0  0
   98.1339  132.0603  120.3491 F   0  0  0  0  0
  1  2  1  0  0  0
  2  3  1  0  0  0
  2 23  1  0  0  0
  2 18  1  0  0  0
  4  5  1  0  0  0
  7  5  1  0  0  0
  8  7  1  0  0  0
  9  8  1  0  0  0
  9 10  1  0  0  0
 10 11  1  0  0  0
 10  6  1  0  0  0
 11  9  1  0  0  0
 13 14  1  0  0  0
 15 16  1  0  0  0
 15 29  1  0  0  0
 17 28  1  0  0  0
 17 12  1  0  0  0
 19 26  1  0  0  0
 20 21  1  0  0  0
 22 18  1  0  0  0
 23  4  1  0  0  0
 25 24  1  0  0  0
 25  6  1  0  0  0
 25 12  1  0  0  0
  4 27  2  0  0  0
  5 24  2  0  0  0
  6  7  2  0  0  0
 12 13  2  0  0  0
 14 15  2  0  0  0
 16 17  2  0  0  0
 18 26  2  0  0  0
 19 20  2  0  0  0
 21 22  2  0  0  0
M  END
> <rmsd>
0.393781096

$$$$
CHEMBL285259_5TGZ


 27 29  0  0  0  0  0  0  0  0999 V2000
   87.7137  130.0309  124.2187 C   0  0  0  0  0
   89.1530  130.4932  124.1384 C   0  0  0  0  0
   89.8543  129.7639  123.0127 C   0  0  0  0  0
   91.2934  130.2332  122.9256 C   0  0  0  0  0
   92.0124  129.5352  121.7819 C   0  0  0  0  0
   90.4657  130.6262  118.7656 C   0  0  0  0  0
   89.2866  130.7063  117.8881 C   0  0  0  0  0
   88.7443  131.6865  114.3987 C   0  0  0  0  0
   88.7821  133.1526  113.9441 C   0  0  0  0  0
   89.1906  134.0493  115.1010 C   0  0  0  0  0
   88.1847  133.9450  116.2473 C   0  0  0  0  0
   87.4312  132.6039  116.2580 C   0  0  0  0  0
   91.7324  131.1386  118.5287 C   0  0  0  0  0
   92.1801  131.9220  117.3390 C   0  0  0  0  0
   92.4731  130.8096  119.6572 C   0  0  0  0  0
   93.9027  131.1352  119.9078 C   0  0  0  0  0
   94.4191  131.1496  121.2126 C   0  0  0  0  0
   95.7612  131.4613  121.4463 C   0  0  0  0  0
   96.6036  131.7644  120.3746 C   0  0  0  0  0
   96.1033  131.7566  119.0709 C   0  0  0  0  0
   94.7606  131.4443  118.8406 C   0  0  0  0  0
   91.6547  130.1368  120.5021 N   0  0  0  0  0
   90.4492  130.0178  119.9669 N   0  0  0  0  0
   89.3731  131.3416  116.6104 N   0  0  0  0  0
   88.2530  131.4820  115.7737 N   0  0  0  0  0
   88.1938  130.2065  118.2684 O   0  0  0  0  0
   98.4335  132.1898  120.6910 Br  0  0  0  0  0
  1  2  1  0  0  0
  2  3  1  0  0  0
  3  4  1  0  0  0
  4  5  1  0  0  0
  5 22  1  0  0  0
  6  7  1  0  0  0
  6 13  1  0  0  0
  7 24  1  0  0  0
  8 25  1  0  0  0
  8  9  1  0  0  0
  9 10  1  0  0  0
 10 11  1  0  0  0
 11 12  1  0  0  0
 12 25  1  0  0  0
 14 13  1  0  0  0
 15 16  1  0  0  0
 15 22  1  0  0  0
 17 18  1  0  0  0
 19 27  1  0  0  0
 19 20  1  0  0  0
 21 16  1  0  0  0
 22 23  1  0  0  0
 24 25  1  0  0  0
  6 23  2  0  0  0
  7 26  2  0  0  0
 13 15  2  0  0  0
 16 17  2  0  0  0
 18 19  2  0  0  0
 20 21  2  0  0  0
M  END
> <rmsd>
0.525454521

$$$$
CHEMBL1668395_6N4B


 32 35  0  0  0  0  0  0  0  0999 V2000
   96.7154  131.8890  124.8739 C   0  0  0  0  0
   97.0232  132.4358  123.4966 C   0  0  0  0  0
   96.5112  133.8595  123.3913 C   0  0  0  0  0
   96.7524  134.4088  121.9945 C   0  0  0  0  0
   95.6064  134.0514  121.0544 C   0  0  0  0  0
   94.7219  131.6987  121.0256 C   0  0  0  0  0
   93.5437  131.9726  121.9022 C   0  0  0  0  0
   95.0844  130.4520  120.5031 C   0  0  0  0  0
   94.3856  129.1563  120.6549 C   0  0  0  0  0
   92.9246  129.0706  120.8682 C   0  0  0  0  0
   92.4592  128.2531  121.9039 C   0  0  0  0  0
   91.0952  128.1368  122.1656 C   0  0  0  0  0
   90.1614  128.8287  121.3920 C   0  0  0  0  0
   88.7083  128.6856  121.7329 C   0  0  0  0  0
   88.2284  129.8462  122.5923 C   0  0  0  0  0
   88.7143  129.6902  124.0209 C   0  0  0  0  0
   88.2431  130.8694  124.8450 C   0  0  0  0  0
   90.6013  129.6404  120.3272 C   0  0  0  0  0
   89.6807  130.3265  119.5191 C   0  0  0  0  0
   90.1190  131.1110  118.4510 C   0  0  0  0  0
   91.4821  131.2150  118.1740 C   0  0  0  0  0
   91.9479  132.0464  117.0341 C   0  0  0  0  0
   92.4099  130.5402  118.9679 C   0  0  0  0  0
   91.9909  129.7571  120.0561 C   0  0  0  0  0
   96.2764  130.6720  119.8346 C   0  0  0  0  0
   97.0958  129.7976  119.1207 C   0  0  0  0  0
   98.2567  130.3261  118.5295 C   0  0  0  0  0
   98.5686  131.6961  118.6596 C   0  0  0  0  0
   97.7239  132.5562  119.3829 C   0  0  0  0  0
   96.5785  132.0057  119.9606 C   0  0  0  0  0
   95.6409  132.6369  120.6928 N   0  0  0  0  0
   95.0577  128.0905  120.6195 O   0  0  0  0  0
  1  2  1  0  0  0
  2  3  1  0  0  0
  3  4  1  0  0  0
  4  5  1  0  0  0
  5 31  1  0  0  0
  7  6  1  0  0  0
  8  9  1  0  0  0
  8 25  1  0  0  0
  9 10  1  0  0  0
 11 12  1  0  0  0
 13 18  1  0  0  0
 14 13  1  0  0  0
 14 15  1  0  0  0
 15 16  1  0  0  0
 16 17  1  0  0  0
 19 20  1  0  0  0
 21 23  1  0  0  0
 22 21  1  0  0  0
 24 10  1  0  0  0
 24 18  1  0  0  0
 26 27  1  0  0  0
 28 29  1  0  0  0
 30 31  1  0  0  0
 30 25  1  0  0  0
 31  6  1  0  0  0
  6  8  2  0  0  0
  9 32  2  0  0  0
 10 11  2  0  0  0
 12 13  2  0  0  0
 18 19  2  0  0  0
 20 21  2  0  0  0
 23 24  2  0  0  0
 25 26  2  0  0  0
 27 28  2  0  0  0
 29 30  2  0  0  0
M  END
> <rmsd>
0.529435635

$$$$
CHEMBL218649_5U09


 31 33  0  0  0  0  0  0  0  0999 V2000
   90.9222  132.5024  125.3562 C   0  0  0  0  0
   91.6152  131.9849  124.1078 C   0  0  0  0  0
   93.8946  132.9158  123.5447 C   0  0  0  0  0
   95.3944  132.8671  123.6905 C   0  0  0  0  0
   95.8212  133.9965  124.6071 C   0  0  0  0  0
   95.8620  131.5599  124.3205 C   0  0  0  0  0
   95.8744  132.2211  121.2996 C   0  0  0  0  0
   96.3911  132.6423  120.0693 C   0  0  0  0  0
   96.2379  131.8485  118.9286 C   0  0  0  0  0
   95.5710  130.6233  119.0131 C   0  0  0  0  0
   95.0652  130.1874  120.2394 C   0  0  0  0  0
   95.2147  130.9833  121.3782 C   0  0  0  0  0
   91.1855  130.5400  123.8105 C   0  0  0  0  0
   92.0197  129.8564  122.7128 C   0  0  0  0  0
   91.7409  130.3273  121.3177 C   0  0  0  0  0
   91.2835  129.4091  120.3670 C   0  0  0  0  0
   91.0615  129.8152  119.0477 C   0  0  0  0  0
   91.3010  131.1411  118.6750 C   0  0  0  0  0
   91.7616  132.0612  119.6207 C   0  0  0  0  0
   91.9827  131.6541  120.9389 C   0  0  0  0  0
   89.7029  130.3820  123.6075 C   0  0  0  0  0
   88.9925  129.5091  124.4388 C   0  0  0  0  0
   87.6126  129.3508  124.2784 C   0  0  0  0  0
   86.9368  130.0679  123.2871 C   0  0  0  0  0
   87.6391  130.9472  122.4584 C   0  0  0  0  0
   89.0180  131.1066  122.6194 C   0  0  0  0  0
   93.0556  132.0490  124.3145 N   0  0  0  0  0
   93.3757  133.7641  122.7684 O   0  0  0  0  0
   96.0269  133.0572  122.4184 O   0  0  0  0  0
   95.3699  129.6346  117.5832 Cl  0  0  0  0  0
   91.0305  131.6471  117.0220 Cl  0  0  0  0  0
  2  1  1  0  0  0
  2 27  1  0  0  0
  2 13  1  0  0  0
  4  3  1  0  0  0
  4  5  1  0  0  0
  4  6  1  0  0  0
  4 29  1  0  0  0
  7 29  1  0  0  0
  8  9  1  0  0  0
 10 30  1  0  0  0
 10 11  1  0  0  0
 12  7  1  0  0  0
 13 14  1  0  0  0
 13 21  1  0  0  0
 14 15  1  0  0  0
 16 17  1  0  0  0
 18 31  1  0  0  0
 18 19  1  0  0  0
 20 15  1  0  0  0
 22 23  1  0  0  0
 24 25  1  0  0  0
 26 21  1  0  0  0
 27  3  1  0  0  0
  3 28  2  0  0  0
  7  8  2  0  0  0
  9 10  2  0  0  0
 11 12  2  0  0  0
 15 16  2  0  0  0
 17 18  2  0  0  0
 19 20  2  0  0  0
 21 22  2  0  0  0
 23 24  2  0  0  0
 25 26  2  0  0  0
M  END
> <rmsd>
0.537887037

$$$$
CHEMBL258753_6KQI


 33 37  0  0  0  0  0  0  0  0999 V2000
   88.0735  132.4362  121.2374 O   0  0  0  0  0
   93.2873  130.2685  118.5190 O   0  0  0  0  0
   92.9203  132.4207  119.1587 O   0  0  0  0  0
   88.6643  131.3569  121.5158 C   0  0  0  0  0
   89.8641  130.9818  120.7386 C   0  0  0  0  0
   90.7801  131.9902  120.3729 C   0  0  0  0  0
   91.8986  131.6195  119.6348 C   0  0  0  0  0
   92.1171  130.3363  119.2528 C   0  0  0  0  0
   91.2319  129.3114  119.5668 C   0  0  0  0  0
   90.0896  129.6408  120.3191 C   0  0  0  0  0
   93.8930  131.5752  118.5162 C   0  0  0  0  0
   95.1484  131.5361  119.3691 C   0  0  0  0  0
   95.9502  130.3838  119.4012 C   0  0  0  0  0
   97.1295  130.3629  120.1510 C   0  0  0  0  0
   97.5228  131.4967  120.8665 C   0  0  0  0  0
   96.7412  132.6541  120.8269 C   0  0  0  0  0
   95.5617  132.6758  120.0774 C   0  0  0  0  0
   94.1633  132.0460  117.0856 C   0  0  0  0  0
   95.4776  132.3776  116.6993 C   0  0  0  0  0
   95.7695  132.8105  115.4060 C   0  0  0  0  0
   94.7493  132.9218  114.4653 C   0  0  0  0  0
   93.4401  132.6002  114.8191 C   0  0  0  0  0
   93.1353  132.1650  116.1131 C   0  0  0  0  0
   86.7802  130.6779  123.0186 C   0  0  0  0  0
   86.7087  130.9314  124.5262 C   0  0  0  0  0
   87.6485  130.0313  125.3450 C   0  0  0  0  0
   88.3674  128.9806  124.5000 C   0  0  0  0  0
   89.0794  129.6521  123.3281 C   0  0  0  0  0
   89.1868  128.6659  120.5914 F   0  0  0  0  0
   98.6655  131.4760  121.5935 F   0  0  0  0  0
   95.1097  133.4644  112.8411 Cl  0  0  0  0  0
   91.4499  131.7903  116.4333 Cl  0  0  0  0  0
   88.1724  130.5391  122.5903 N   0  0  0  0  0
  4  5  1  0  0  0
  4 33  1  0  0  0
  6  7  1  0  0  0
  7  3  1  0  0  0
  8  9  1  0  0  0
  8  2  1  0  0  0
 10 29  1  0  0  0
 10  5  1  0  0  0
 11  2  1  0  0  0
 11 12  1  0  0  0
 11 18  1  0  0  0
 11  3  1  0  0  0
 13 14  1  0  0  0
 15 30  1  0  0  0
 15 16  1  0  0  0
 17 12  1  0  0  0
 19 20  1  0  0  0
 21 31  1  0  0  0
 21 22  1  0  0  0
 23 32  1  0  0  0
 23 18  1  0  0  0
 24 33  1  0  0  0
 24 25  1  0  0  0
 25 26  1  0  0  0
 26 27  1  0  0  0
 27 28  1  0  0  0
 28 33  1  0  0  0
  4  1  2  0  0  0
  5  6  2  0  0  0
  7  8  2  0  0  0
  9 10  2  0  0  0
 12 13  2  0  0  0
 14 15  2  0  0  0
 16 17  2  0  0  0
 18 19  2  0  0  0
 20 21  2  0  0  0
 22 23  2  0  0  0
M  END
> <rmsd>
0.74150151

$$$$
CHEMBL2206855_6N4B


 27 30  0  0  0  0  0  0  0  0999 V2000
   87.9548  130.0623  124.8235 C   0  0  0  0  0
   89.0259  130.1754  123.7597 C   0  0  0  0  0
   88.6090  129.3815  122.5359 C   0  0  0  0  0
   89.6665  129.4857  121.4522 C   0  0  0  0  0
   89.6025  130.8474  120.7788 C   0  0  0  0  0
   91.9726  130.9672  119.9810 C   0  0  0  0  0
   92.6368  131.1167  118.7620 C   0  0  0  0  0
   94.0998  131.1487  118.5593 C   0  0  0  0  0
   95.0369  131.2761  119.6958 C   0  0  0  0  0
   96.0605  130.3273  119.8120 C   0  0  0  0  0
   96.9726  130.3835  120.8661 C   0  0  0  0  0
   96.8824  131.3947  121.8227 C   0  0  0  0  0
   95.8823  132.3712  121.7174 C   0  0  0  0  0
   95.8065  133.4057  122.6590 C   0  0  0  0  0
   94.8296  134.3965  122.5418 C   0  0  0  0  0
   93.9243  134.3643  121.4799 C   0  0  0  0  0
   93.9881  133.3369  120.5363 C   0  0  0  0  0
   94.9532  132.3221  120.6454 C   0  0  0  0  0
   91.6537  131.1883  117.7911 C   0  0  0  0  0
   91.7374  131.3377  116.4069 C   0  0  0  0  0
   90.5330  131.3863  115.6825 C   0  0  0  0  0
   89.2913  131.2878  116.3468 C   0  0  0  0  0
   89.2379  131.1387  117.7442 C   0  0  0  0  0
   90.4491  131.0928  118.4363 C   0  0  0  0  0
   90.6367  130.9541  119.7598 N   0  0  0  0  0
   94.5673  131.0160  117.3962 O   0  0  0  0  0
   97.7811  131.4274  122.8391 F   0  0  0  0  0
  1  2  1  0  0  0
  2  3  1  0  0  0
  3  4  1  0  0  0
  4  5  1  0  0  0
  5 25  1  0  0  0
  7  8  1  0  0  0
  7 19  1  0  0  0
  8  9  1  0  0  0
 10 11  1  0  0  0
 12 27  1  0  0  0
 12 13  1  0  0  0
 14 15  1  0  0  0
 16 17  1  0  0  0
 18  9  1  0  0  0
 18 13  1  0  0  0
 20 21  1  0  0  0
 22 23  1  0  0  0
 24 25  1  0  0  0
 24 19  1  0  0  0
 25  6  1  0  0  0
  6  7  2  0  0  0
  8 26  2  0  0  0
  9 10  2  0  0  0
 11 12  2  0  0  0
 13 14  2  0  0  0
 15 16  2  0  0  0
 17 18  2  0  0  0
 19 20  2  0  0  0
 21 22  2  0  0  0
 23 24  2  0  0  0
M  END
> <rmsd>
0.587473154

$$$$
CHEMBL3931943_6N4B


 28 30  0  0  0  0  0  0  0  0999 V2000
   88.6108  126.0238  122.7662 C   0  0  0  0  0
   87.7678  127.1586  123.3339 C   0  0  0  0  0
   88.5903  128.4054  123.6676 C   0  0  0  0  0
   87.5701  129.4677  124.1095 C   0  0  0  0  0
   88.1829  130.7343  124.6864 C   0  0  0  0  0
   89.5623  128.0615  124.7778 C   0  0  0  0  0
   90.2542  129.8893  122.3166 C   0  0  0  0  0
   90.7595  130.2596  120.9863 C   0  0  0  0  0
   92.1950  131.6228  119.6569 C   0  0  0  0  0
   91.7349  130.9990  118.4782 C   0  0  0  0  0
   90.7902  129.9711  118.5930 C   0  0  0  0  0
   90.2951  129.6035  119.8428 C   0  0  0  0  0
   92.2961  131.3493  117.1256 C   0  0  0  0  0
   91.1870  131.5424  116.1021 C   0  0  0  0  0
   91.8541  132.7467  116.7221 C   0  0  0  0  0
   93.2610  132.6732  119.6220 C   0  0  0  0  0
   94.6007  132.0710  119.8802 C   0  0  0  0  0
   95.3813  131.6138  118.8123 C   0  0  0  0  0
   96.6280  131.0299  119.0559 C   0  0  0  0  0
   97.0944  130.8990  120.3675 C   0  0  0  0  0
   96.3135  131.3502  121.4361 C   0  0  0  0  0
   95.0666  131.9342  121.1930 C   0  0  0  0  0
   89.1463  127.9015  125.9567 O   0  0  0  0  0
   90.9084  127.8495  124.5013 O   0  0  0  0  0
   90.6988  130.4822  123.3359 O   0  0  0  0  0
   89.2794  128.8425  122.4457 N   0  0  0  0  0
   91.6959  131.2397  120.8639 N   0  0  0  0  0
   98.3022  130.3332  120.6033 F   0  0  0  0  0
  1  2  1  0  0  0
  2  3  1  0  0  0
  3  4  1  0  0  0
  3  6  1  0  0  0
  3 26  1  0  0  0
  4  5  1  0  0  0
  6 24  1  0  0  0
  7  8  1  0  0  0
  9 27  1  0  0  0
 10 11  1  0  0  0
 12  8  1  0  0  0
 13 10  1  0  0  0
 13 14  1  0  0  0
 14 15  1  0  0  0
 15 13  1  0  0  0
 16  9  1  0  0  0
 16 17  1  0  0  0
 18 19  1  0  0  0
 20 21  1  0  0  0
 20 28  1  0  0  0
 22 17  1  0  0  0
 26  7  1  0  0  0
  6 23  2  0  0  0
  7 25  2  0  0  0
  8 27  2  0  0  0
  9 10  2  0  0  0
 11 12  2  0  0  0
 17 18  2  0  0  0
 19 20  2  0  0  0
 21 22  2  0  0  0
M  END
> <rmsd>
0.506165981

$$$$
CHEMBL306529_6N4B


 27 30  0  0  0  0  0  0  0  0999 V2000
   87.5767  129.8805  124.9293 C   0  0  0  0  0
   88.6103  130.5286  124.0329 C   0  0  0  0  0
   88.6679  129.7896  122.7131 C   0  0  0  0  0
   89.7017  130.4376  121.8177 C   0  0  0  0  0
   89.7620  129.6948  120.4962 C   0  0  0  0  0
   92.1081  130.2775  119.7749 C   0  0  0  0  0
   92.8029  129.5490  120.8789 C   0  0  0  0  0
   92.7314  130.9262  118.7031 C   0  0  0  0  0
   94.1800  131.0928  118.4502 C   0  0  0  0  0
   95.1544  131.2344  119.5585 C   0  0  0  0  0
   94.7944  132.0076  120.6731 C   0  0  0  0  0
   95.6829  132.2008  121.7319 C   0  0  0  0  0
   96.9531  131.6270  121.6933 C   0  0  0  0  0
   97.3405  130.8574  120.5957 C   0  0  0  0  0
   98.6146  130.2831  120.5720 C   0  0  0  0  0
   99.0119  129.5016  119.4846 C   0  0  0  0  0
   98.1359  129.2890  118.4179 C   0  0  0  0  0
   96.8607  129.8597  118.4332 C   0  0  0  0  0
   96.4455  130.6546  119.5142 C   0  0  0  0  0
   91.6988  131.3308  117.8743 C   0  0  0  0  0
   91.7198  132.0103  116.6564 C   0  0  0  0  0
   90.4864  132.2844  116.0396 C   0  0  0  0  0
   89.2766  131.8796  116.6429 C   0  0  0  0  0
   89.2837  131.1961  117.8715 C   0  0  0  0  0
   90.5215  130.9395  118.4635 C   0  0  0  0  0
   90.7605  130.3009  119.6229 N   0  0  0  0  0
   94.5863  131.1545  117.2584 O   0  0  0  0  0
  1  2  1  0  0  0
  2  3  1  0  0  0
  3  4  1  0  0  0
  4  5  1  0  0  0
  5 26  1  0  0  0
  7  6  1  0  0  0
  8  9  1  0  0  0
  8 20  1  0  0  0
  9 10  1  0  0  0
 11 12  1  0  0  0
 13 14  1  0  0  0
 15 16  1  0  0  0
 17 18  1  0  0  0
 19 10  1  0  0  0
 19 14  1  0  0  0
 21 22  1  0  0  0
 23 24  1  0  0  0
 25 26  1  0  0  0
 25 20  1  0  0  0
 26  6  1  0  0  0
  6  8  2  0  0  0
  9 27  2  0  0  0
 10 11  2  0  0  0
 12 13  2  0  0  0
 14 15  2  0  0  0
 16 17  2  0  0  0
 18 19  2  0  0  0
 20 21  2  0  0  0
 22 23  2  0  0  0
 24 25  2  0  0  0
M  END
> <rmsd>
0.543770254

$$$$
CHEMBL1760657_5U09


 33 36  0  0  0  0  0  0  0  0999 V2000
   94.5431  128.6350  122.3216 C   0  0  0  0  0
   94.9940  130.6519  120.9560 C   0  0  0  0  0
   96.2973  130.2234  120.6563 C   0  0  0  0  0
   97.1282  130.9962  119.8426 C   0  0  0  0  0
   96.6663  132.2040  119.3051 C   0  0  0  0  0
   97.5729  133.0608  118.4703 C   0  0  0  0  0
   95.3743  132.6434  119.6197 C   0  0  0  0  0
   94.5355  131.8745  120.4328 C   0  0  0  0  0
   93.1528  132.3762  120.7128 C   0  0  0  0  0
   91.2106  130.7670  120.4950 C   0  0  0  0  0
   90.9885  130.5188  121.9326 C   0  0  0  0  0
   89.6846  129.3070  123.7364 C   0  0  0  0  0
   88.6314  130.2946  124.2180 C   0  0  0  0  0
   88.9614  131.7651  124.4062 C   0  0  0  0  0
   87.6441  129.7310  125.2112 C   0  0  0  0  0
   87.2176  130.0053  123.7735 C   0  0  0  0  0
   90.4391  130.1831  119.4857 C   0  0  0  0  0
   90.9616  130.7109  118.3223 C   0  0  0  0  0
   90.5807  130.4897  117.0011 C   0  0  0  0  0
   91.2859  131.1720  115.9932 C   0  0  0  0  0
   90.9304  130.9758  114.6165 C   0  0  0  0  0
   92.3397  132.0498  116.3270 C   0  0  0  0  0
   92.7016  132.2540  117.6698 C   0  0  0  0  0
   91.9856  131.5601  118.6471 C   0  0  0  0  0
   94.1518  129.8833  121.7670 O   0  0  0  0  0
   91.6485  131.1517  122.8000 O   0  0  0  0  0
   89.9259  131.9130  125.4034 O   0  0  0  0  0
   96.8386  133.7686  117.5344 F   0  0  0  0  0
   98.5000  132.2786  117.8031 F   0  0  0  0  0
   98.2404  133.9525  119.2892 F   0  0  0  0  0
   92.1557  131.5978  119.9795 N   0  0  0  0  0
   90.0163  129.5520  122.3397 N   0  0  0  0  0
   90.6437  130.8177  113.5066 N   0  0  0  0  0
  1 25  1  0  0  0
  2 25  1  0  0  0
  3  4  1  0  0  0
  5  7  1  0  0  0
  6  5  1  0  0  0
  6 28  1  0  0  0
  6 29  1  0  0  0
  6 30  1  0  0  0
  8  2  1  0  0  0
  9  8  1  0  0  0
  9 31  1  0  0  0
 10 11  1  0  0  0
 11 32  1  0  0  0
 12 32  1  0  0  0
 12 13  1  0  0  0
 13 14  1  0  0  0
 13 15  1  0  0  0
 14 27  1  0  0  0
 15 16  1  0  0  0
 16 13  1  0  0  0
 17 18  1  0  0  0
 19 20  1  0  0  0
 20 21  1  0  0  0
 22 23  1  0  0  0
 24 31  1  0  0  0
 24 18  1  0  0  0
 31 10  1  0  0  0
  2  3  2  0  0  0
  4  5  2  0  0  0
  7  8  2  0  0  0
 10 17  2  0  0  0
 11 26  2  0  0  0
 18 19  2  0  0  0
 20 22  2  0  0  0
 23 24  2  0  0  0
 21 33  3  0  0  0
M  END
> <rmsd>
0.253301084

$$$$
CHEMBL1760668_5U09


 34 37  0  0  0  0  0  0  0  0999 V2000
   95.6487  132.7103  116.9202 C   0  0  0  0  0
   95.4393  131.5562  119.0995 C   0  0  0  0  0
   96.4099  132.3846  119.6867 C   0  0  0  0  0
   96.7734  132.2139  121.0238 C   0  0  0  0  0
   96.1850  131.2028  121.7921 C   0  0  0  0  0
   96.5300  131.0446  123.2438 C   0  0  0  0  0
   95.2037  130.3894  121.2138 C   0  0  0  0  0
   94.8256  130.5565  119.8777 C   0  0  0  0  0
   93.7590  129.6630  119.3176 C   0  0  0  0  0
   91.6335  130.7998  120.1273 C   0  0  0  0  0
   91.7447  130.4813  121.5614 C   0  0  0  0  0
   90.9958  130.9436  123.9365 C   0  0  0  0  0
   90.1222  129.7262  124.2212 C   0  0  0  0  0
   88.6325  130.0338  124.0840 C   0  0  0  0  0
   88.1031  131.0259  125.0981 C   0  0  0  0  0
   87.2234  129.9373  125.6877 C   0  0  0  0  0
   87.7599  128.9466  124.6683 C   0  0  0  0  0
   90.5760  131.5372  119.5883 C   0  0  0  0  0
   90.8323  131.5389  118.2330 C   0  0  0  0  0
   90.1010  132.1124  117.1956 C   0  0  0  0  0
   90.5842  131.9483  115.8851 C   0  0  0  0  0
   89.8659  132.5231  114.7838 C   0  0  0  0  0
   91.7679  131.2164  115.6457 C   0  0  0  0  0
   92.4848  130.6484  116.7131 C   0  0  0  0  0
   91.9855  130.8369  118.0031 C   0  0  0  0  0
   95.0800  131.7135  117.7571 O   0  0  0  0  0
   92.4644  129.5222  121.9487 O   0  0  0  0  0
   88.2502  130.3529  122.7797 O   0  0  0  0  0
   95.5805  131.6917  124.0102 F   0  0  0  0  0
   96.5505  129.7041  123.5864 F   0  0  0  0  0
   97.7731  131.5895  123.5144 F   0  0  0  0  0
   92.4964  130.3858  119.1599 N   0  0  0  0  0
   91.0043  131.2499  122.5133 N   0  0  0  0  0
   89.2859  132.9851  113.8956 N   0  0  0  0  0
  1 26  1  0  0  0
  2 26  1  0  0  0
  3  4  1  0  0  0
  5  7  1  0  0  0
  6  5  1  0  0  0
  6 29  1  0  0  0
  6 30  1  0  0  0
  6 31  1  0  0  0
  8  2  1  0  0  0
  9  8  1  0  0  0
  9 32  1  0  0  0
 10 11  1  0  0  0
 11 33  1  0  0  0
 12 33  1  0  0  0
 12 13  1  0  0  0
 13 14  1  0  0  0
 14 28  1  0  0  0
 14 15  1  0  0  0
 15 16  1  0  0  0
 16 17  1  0  0  0
 17 14  1  0  0  0
 18 19  1  0  0  0
 20 21  1  0  0  0
 21 22  1  0  0  0
 23 24  1  0  0  0
 25 32  1  0  0  0
 25 19  1  0  0  0
 32 10  1  0  0  0
  2  3  2  0  0  0
  4  5  2  0  0  0
  7  8  2  0  0  0
 10 18  2  0  0  0
 11 27  2  0  0  0
 19 20  2  0  0  0
 21 23  2  0  0  0
 24 25  2  0  0  0
 22 34  3  0  0  0
M  END
> <rmsd>
0.43029207

$$$$
CHEMBL2206856_6N4B


 28 31  0  0  0  0  0  0  0  0999 V2000
   87.9167  130.9403  124.1220 C   0  0  0  0  0
   88.7382  129.6648  124.1129 C   0  0  0  0  0
   88.8227  129.0983  122.7070 C   0  0  0  0  0
   89.7931  129.9075  121.8680 C   0  0  0  0  0
   89.8565  129.3268  120.4679 C   0  0  0  0  0
   92.1376  130.1401  119.7617 C   0  0  0  0  0
   92.9112  129.3365  120.7555 C   0  0  0  0  0
   92.6847  130.9480  118.7585 C   0  0  0  0  0
   94.1113  131.2377  118.4918 C   0  0  0  0  0
   95.1104  131.3097  119.5847 C   0  0  0  0  0
   94.7410  131.9269  120.7885 C   0  0  0  0  0
   95.6481  132.0510  121.8407 C   0  0  0  0  0
   96.9482  131.5647  121.7098 C   0  0  0  0  0
   97.3481  130.9469  120.5172 C   0  0  0  0  0
   98.6519  130.4516  120.3848 C   0  0  0  0  0
   99.0526  129.8257  119.2029 C   0  0  0  0  0
   98.1530  129.6877  118.1448 C   0  0  0  0  0
   96.8507  130.1778  118.2641 C   0  0  0  0  0
   96.4300  130.8171  119.4420 C   0  0  0  0  0
   91.6028  131.3774  118.0089 C   0  0  0  0  0
   91.5424  132.1936  116.8793 C   0  0  0  0  0
   90.2751  132.4561  116.3299 C   0  0  0  0  0
   89.1127  131.9061  116.9111 C   0  0  0  0  0
   89.2019  131.0868  118.0502 C   0  0  0  0  0
   90.4717  130.8445  118.5769 C   0  0  0  0  0
   90.7870  130.0929  119.6469 N   0  0  0  0  0
   94.4742  131.4672  117.3065 O   0  0  0  0  0
   97.8124  131.6964  122.7480 F   0  0  0  0  0
  1  2  1  0  0  0
  2  3  1  0  0  0
  3  4  1  0  0  0
  4  5  1  0  0  0
  5 26  1  0  0  0
  7  6  1  0  0  0
  8  9  1  0  0  0
  8 20  1  0  0  0
  9 10  1  0  0  0
 11 12  1  0  0  0
 13 28  1  0  0  0
 13 14  1  0  0  0
 15 16  1  0  0  0
 17 18  1  0  0  0
 19 10  1  0  0  0
 19 14  1  0  0  0
 21 22  1  0  0  0
 23 24  1  0  0  0
 25 26  1  0  0  0
 25 20  1  0  0  0
 26  6  1  0  0  0
  6  8  2  0  0  0
  9 27  2  0  0  0
 10 11  2  0  0  0
 12 13  2  0  0  0
 14 15  2  0  0  0
 16 17  2  0  0  0
 18 19  2  0  0  0
 20 21  2  0  0  0
 22 23  2  0  0  0
 24 25  2  0  0  0
M  END
> <rmsd>
0.56340009

$$$$
CHEMBL466110_5U09


 34 38  0  0  0  0  0  0  0  0999 V2000
   90.2383  131.3739  123.5477 C   0  0  0  0  0
   89.1520  131.9602  122.8427 C   0  0  0  0  0
   90.2593  131.5999  120.7640 C   0  0  0  0  0
   91.3374  130.9835  121.4164 C   0  0  0  0  0
   91.3201  130.8785  122.8064 C   0  0  0  0  0
   92.4028  130.5068  120.6462 C   0  0  0  0  0
   91.3080  131.2536  118.6750 C   0  0  0  0  0
   91.2860  131.4075  117.1898 C   0  0  0  0  0
   91.3144  130.0508  116.5124 C   0  0  0  0  0
   92.4625  132.2431  116.7228 C   0  0  0  0  0
   94.6310  129.4300  120.5373 C   0  0  0  0  0
   95.4887  130.5802  120.1313 C   0  0  0  0  0
   96.7964  132.2161  120.1827 C   0  0  0  0  0
   87.9320  132.4407  123.5175 C   0  0  0  0  0
   87.6266  133.8067  123.4570 C   0  0  0  0  0
   86.4797  134.3043  124.0800 C   0  0  0  0  0
   85.6234  133.4371  124.7613 C   0  0  0  0  0
   85.9085  132.0708  124.8122 C   0  0  0  0  0
   87.0542  131.5638  124.1909 C   0  0  0  0  0
   90.3034  131.2876  125.0284 C   0  0  0  0  0
   89.8084  132.3226  125.8379 C   0  0  0  0  0
   89.8927  132.2390  127.2301 C   0  0  0  0  0
   90.4818  131.1224  127.8276 C   0  0  0  0  0
   90.9928  130.0934  127.0334 C   0  0  0  0  0
   90.9073  130.1775  125.6409 C   0  0  0  0  0
   89.2069  132.0634  121.4851 N   0  0  0  0  0
   92.3615  130.6509  119.2929 N   0  0  0  0  0
   90.2664  131.7220  119.4120 N   0  0  0  0  0
   95.5443  131.0607  118.8789 N   0  0  0  0  0
   96.2560  131.2793  120.9882 N   0  0  0  0  0
   93.4973  129.8905  121.2638 O   0  0  0  0  0
   96.3627  132.0653  118.9525 O   0  0  0  0  0
   87.3271  129.8277  124.2410 Cl  0  0  0  0  0
   90.5865  131.0164  129.5713 Cl  0  0  0  0  0
  1  2  1  0  0  0
  1 20  1  0  0  0
  2 14  1  0  0  0
  3 26  1  0  0  0
  3 28  1  0  0  0
  4  5  1  0  0  0
  4  6  1  0  0  0
  6 31  1  0  0  0
  7 27  1  0  0  0
  8  7  1  0  0  0
  8  9  1  0  0  0
  8 10  1  0  0  0
 11 31  1  0  0  0
 11 12  1  0  0  0
 12 30  1  0  0  0
 13 32  1  0  0  0
 15 16  1  0  0  0
 17 18  1  0  0  0
 19 33  1  0  0  0
 19 14  1  0  0  0
 21 22  1  0  0  0
 23 24  1  0  0  0
 23 34  1  0  0  0
 25 20  1  0  0  0
 29 32  1  0  0  0
  2 26  2  0  0  0
  3  4  2  0  0  0
  5  1  2  0  0  0
  6 27  2  0  0  0
  7 28  2  0  0  0
 12 29  2  0  0  0
 13 30  2  0  0  0
 14 15  2  0  0  0
 16 17  2  0  0  0
 18 19  2  0  0  0
 20 21  2  0  0  0
 22 23  2  0  0  0
 24 25  2  0  0  0
M  END
> <rmsd>
0.717884958

$$$$
CHEMBL1801086_6N4B


 33 37  0  0  0  0  0  0  0  0999 V2000
   88.9421  128.5212  119.3111 C   0  0  0  0  0
   89.2201  129.9846  119.6257 C   0  0  0  0  0
   88.5836  129.8133  122.1130 C   0  0  0  0  0
   88.0194  130.5218  123.2998 C   0  0  0  0  0
   89.9398  132.0764  123.8759 C   0  0  0  0  0
   90.4077  133.4422  124.1283 C   0  0  0  0  0
   91.7217  133.8232  124.3793 C   0  0  0  0  0
   90.7171  135.8551  124.5402 C   0  0  0  0  0
   87.3819  129.7377  124.4265 C   0  0  0  0  0
   86.5099  130.4551  123.3953 C   0  0  0  0  0
   90.6897  130.2897  119.6990 C   0  0  0  0  0
   91.5005  129.7169  120.6873 C   0  0  0  0  0
   92.8595  130.0291  120.7534 C   0  0  0  0  0
   93.4339  130.9181  119.8333 C   0  0  0  0  0
   96.7602  132.0615  119.2717 C   0  0  0  0  0
   96.9807  131.3627  120.4367 C   0  0  0  0  0
   98.1319  131.1406  121.1878 C   0  0  0  0  0
   97.9986  130.3654  122.3558 C   0  0  0  0  0
   96.7404  129.8452  122.7337 C   0  0  0  0  0
   95.5990  130.0878  121.9466 C   0  0  0  0  0
   95.7607  130.8553  120.7905 C   0  0  0  0  0
   92.6202  131.4870  118.8444 C   0  0  0  0  0
   91.2590  131.1794  118.7756 C   0  0  0  0  0
   88.5101  130.4340  120.8232 N   0  0  0  0  0
   88.5469  131.8344  123.6461 N   0  0  0  0  0
   91.8788  135.1579  124.6038 N   0  0  0  0  0
   94.8401  131.2316  119.8729 N   0  0  0  0  0
   95.4499  131.9672  118.9466 N   0  0  0  0  0
   89.1451  128.6938  122.2577 O   0  0  0  0  0
   90.7627  131.1187  123.8814 O   0  0  0  0  0
   89.4372  134.8141  124.1986 S   0  0  0  0  0
   97.9558  132.9199  118.3210 Cl  0  0  0  0  0
   90.5002  131.7434  117.8047 F   0  0  0  0  0
  2  1  1  0  0  0
  2 24  1  0  0  0
  2 11  1  0  0  0
  4  3  1  0  0  0
  4 25  1  0  0  0
  4  9  1  0  0  0
  5  6  1  0  0  0
  6 31  1  0  0  0
  7 26  1  0  0  0
  8 31  1  0  0  0
  9 10  1  0  0  0
 10  4  1  0  0  0
 12 13  1  0  0  0
 14 27  1  0  0  0
 14 22  1  0  0  0
 15 32  1  0  0  0
 15 16  1  0  0  0
 17 18  1  0  0  0
 19 20  1  0  0  0
 21 27  1  0  0  0
 21 16  1  0  0  0
 23 33  1  0  0  0
 23 11  1  0  0  0
 24  3  1  0  0  0
 25  5  1  0  0  0
 27 28  1  0  0  0
  3 29  2  0  0  0
  5 30  2  0  0  0
  6  7  2  0  0  0
  8 26  2  0  0  0
 11 12  2  0  0  0
 13 14  2  0  0  0
 15 28  2  0  0  0
 16 17  2  0  0  0
 18 19  2  0  0  0
 20 21  2  0  0  0
 22 23  2  0  0  0
M  END
> <rmsd>
0.770626962

$$$$
CHEMBL4760014_6N4B


 27 29  0  0  0  0  0  0  0  0999 V2000
   91.2124  131.2213  117.9142 C   0  0  0  0  0
   92.3899  130.5311  118.2132 C   0  0  0  0  0
   93.9419  129.5147  119.8225 C   0  0  0  0  0
   95.0291  130.4834  120.1572 C   0  0  0  0  0
   95.8015  131.0531  119.1386 C   0  0  0  0  0
   96.8058  131.9738  119.4520 C   0  0  0  0  0
   97.0377  132.3287  120.7844 C   0  0  0  0  0
   96.2643  131.7642  121.8032 C   0  0  0  0  0
   95.2600  130.8434  121.4897 C   0  0  0  0  0
   91.8469  130.5662  120.5393 C   0  0  0  0  0
   90.6502  131.2691  120.2695 C   0  0  0  0  0
   90.3532  131.5868  118.9422 C   0  0  0  0  0
   89.6937  131.6840  121.3270 C   0  0  0  0  0
   89.0439  131.7843  123.7771 C   0  0  0  0  0
   87.8253  130.8495  123.7547 C   0  0  0  0  0
   88.0532  129.5367  124.4923 C   0  0  0  0  0
   87.6168  129.6863  125.9442 C   0  0  0  0  0
   88.6603  130.4091  126.7907 C   0  0  0  0  0
   88.8942  131.8398  126.3222 C   0  0  0  0  0
   89.8069  131.8326  125.1043 C   0  0  0  0  0
   93.2931  130.1317  117.0870 C   0  0  0  0  0
   92.6941  130.2211  119.5148 N   0  0  0  0  0
   89.9676  131.4309  122.7091 N   0  0  0  0  0
   98.0106  133.2207  121.0880 F   0  0  0  0  0
   90.8948  131.5384  116.6339 F   0  0  0  0  0
   92.1389  130.2477  121.7254 O   0  0  0  0  0
   88.6264  132.2756  121.0044 O   0  0  0  0  0
  1 25  1  0  0  0
  2 22  1  0  0  0
  3 22  1  0  0  0
  3  4  1  0  0  0
  5  6  1  0  0  0
  7  8  1  0  0  0
  7 24  1  0  0  0
  9  4  1  0  0  0
 10 11  1  0  0  0
 11 13  1  0  0  0
 12  1  1  0  0  0
 13 23  1  0  0  0
 14 23  1  0  0  0
 14 15  1  0  0  0
 15 16  1  0  0  0
 16 17  1  0  0  0
 17 18  1  0  0  0
 18 19  1  0  0  0
 19 20  1  0  0  0
 20 14  1  0  0  0
 21  2  1  0  0  0
 22 10  1  0  0  0
  1  2  2  0  0  0
  4  5  2  0  0  0
  6  7  2  0  0  0
  8  9  2  0  0  0
 10 26  2  0  0  0
 11 12  2  0  0  0
 13 27  2  0  0  0
M  END
> <rmsd>
0.495121181

$$$$
CHEMBL1760662_5U09


 32 34  0  0  0  0  0  0  0  0999 V2000
   96.7587  130.6505  116.8705 C   0  0  0  0  0
   95.7159  130.8662  119.1061 C   0  0  0  0  0
   96.6759  131.8017  119.5244 C   0  0  0  0  0
   96.6182  132.3515  120.8066 C   0  0  0  0  0
   95.5950  131.9827  121.6883 C   0  0  0  0  0
   95.5622  132.5425  123.0802 C   0  0  0  0  0
   94.6468  131.0370  121.2787 C   0  0  0  0  0
   94.6974  130.4837  119.9944 C   0  0  0  0  0
   93.6502  129.4998  119.5789 C   0  0  0  0  0
   91.3435  130.3021  120.2516 C   0  0  0  0  0
   91.3019  129.7093  121.6022 C   0  0  0  0  0
   90.0791  129.4026  123.7899 C   0  0  0  0  0
   88.7908  129.8409  124.4806 C   0  0  0  0  0
   87.5807  129.3757  123.6912 C   0  0  0  0  0
   88.7524  131.3515  124.6223 C   0  0  0  0  0
   90.3074  131.0738  119.7171 C   0  0  0  0  0
   90.7627  131.4128  118.4588 C   0  0  0  0  0
   90.1497  132.1828  117.4738 C   0  0  0  0  0
   90.8486  132.3826  116.2698 C   0  0  0  0  0
   90.2571  133.1677  115.2243 C   0  0  0  0  0
   92.1274  131.8154  116.0825 C   0  0  0  0  0
   92.7219  131.0430  117.0954 C   0  0  0  0  0
   92.0027  130.8617  118.2776 C   0  0  0  0  0
   95.7602  130.3102  117.8220 O   0  0  0  0  0
   92.2427  128.9757  122.0091 O   0  0  0  0  0
   88.7455  129.2698  125.7512 O   0  0  0  0  0
   95.9015  133.8844  123.0622 F   0  0  0  0  0
   94.2971  132.4140  123.6305 F   0  0  0  0  0
   96.4673  131.8577  123.8693 F   0  0  0  0  0
   92.3712  130.1741  119.3704 N   0  0  0  0  0
   90.1819  129.9674  122.4503 N   0  0  0  0  0
   89.7802  133.7998  114.3804 N   0  0  0  0  0
  1 24  1  0  0  0
  2 24  1  0  0  0
  3  4  1  0  0  0
  5  7  1  0  0  0
  6  5  1  0  0  0
  6 27  1  0  0  0
  6 28  1  0  0  0
  6 29  1  0  0  0
  8  2  1  0  0  0
  9  8  1  0  0  0
  9 30  1  0  0  0
 10 11  1  0  0  0
 11 31  1  0  0  0
 12 31  1  0  0  0
 12 13  1  0  0  0
 13 14  1  0  0  0
 13 15  1  0  0  0
 13 26  1  0  0  0
 16 17  1  0  0  0
 18 19  1  0  0  0
 19 20  1  0  0  0
 21 22  1  0  0  0
 23 30  1  0  0  0
 23 17  1  0  0  0
 30 10  1  0  0  0
  2  3  2  0  0  0
  4  5  2  0  0  0
  7  8  2  0  0  0
 10 16  2  0  0  0
 11 25  2  0  0  0
 17 18  2  0  0  0
 19 21  2  0  0  0
 22 23  2  0  0  0
 20 32  3  0  0  0
M  END
> <rmsd>
0.179084197

$$$$
CHEMBL2296777_5TGZ


 32 36  0  0  0  0  0  0  0  0999 V2000
   92.6991  129.7060  122.1251 C   0  0  0  0  0
   92.2279  130.0022  120.7393 C   0  0  0  0  0
   90.9740  129.7399  120.2076 C   0  0  0  0  0
   89.8349  129.0860  120.8723 C   0  0  0  0  0
   88.8058  128.1003  122.9687 C   0  0  0  0  0
   88.0379  129.1803  123.7293 C   0  0  0  0  0
   88.9752  129.9240  124.7017 C   0  0  0  0  0
   88.1892  130.9869  125.4848 C   0  0  0  0  0
   87.0702  130.2999  126.2839 C   0  0  0  0  0
   86.1215  129.5600  125.3273 C   0  0  0  0  0
   85.5054  130.5686  124.3440 C   0  0  0  0  0
   86.6161  131.2569  123.5343 C   0  0  0  0  0
   87.5669  131.9874  124.4967 C   0  0  0  0  0
   87.4035  130.1920  122.7547 C   0  0  0  0  0
   86.9171  128.5061  124.5392 C   0  0  0  0  0
   92.3926  131.2991  117.3420 C   0  0  0  0  0
   91.9360  132.7528  117.2806 C   0  0  0  0  0
   90.4189  132.8618  117.2744 C   0  0  0  0  0
   89.8567  132.3892  115.9470 C   0  0  0  0  0
   88.3451  132.4418  115.9929 C   0  0  0  0  0
   92.9287  130.6363  119.7197 C   0  0  0  0  0
   94.3378  131.1131  119.7731 C   0  0  0  0  0
   94.8140  132.0629  118.8566 C   0  0  0  0  0
   96.1397  132.5031  118.9064 C   0  0  0  0  0
   97.0068  131.9984  119.8777 C   0  0  0  0  0
   96.5474  131.0542  120.7982 C   0  0  0  0  0
   95.2212  130.6154  120.7449 C   0  0  0  0  0
   88.7653  128.9031  120.2299 O   0  0  0  0  0
   89.9353  128.6563  122.2323 N   0  0  0  0  0
   90.9271  130.1841  118.9376 N   0  0  0  0  0
   92.1007  130.7238  118.6493 N   0  0  0  0  0
   87.6868  131.8659  114.4455 Cl  0  0  0  0  0
  1  2  1  0  0  0
  2  3  1  0  0  0
  3  4  1  0  0  0
  4 29  1  0  0  0
  5 29  1  0  0  0
  6  5  1  0  0  0
  6  7  1  0  0  0
  8  7  1  0  0  0
  8  9  1  0  0  0
 10  9  1  0  0  0
 10 11  1  0  0  0
 10 15  1  0  0  0
 12 11  1  0  0  0
 12 13  1  0  0  0
 12 14  1  0  0  0
 13  8  1  0  0  0
 14  6  1  0  0  0
 15  6  1  0  0  0
 16 31  1  0  0  0
 16 17  1  0  0  0
 17 18  1  0  0  0
 18 19  1  0  0  0
 19 20  1  0  0  0
 20 32  1  0  0  0
 21 22  1  0  0  0
 23 24  1  0  0  0
 25 26  1  0  0  0
 27 22  1  0  0  0
 31 30  1  0  0  0
 31 21  1  0  0  0
  3 30  2  0  0  0
  4 28  2  0  0  0
 21  2  2  0  0  0
 22 23  2  0  0  0
 24 25  2  0  0  0
 26 27  2  0  0  0
M  END
> <rmsd>
0.731576383

$$$$
CHEMBL1224535_6N4B


 33 36  0  0  0  0  0  0  0  0999 V2000
   96.8755  134.8305  124.2102 C   0  0  0  0  0
   95.0617  133.2544  123.5972 C   0  0  0  0  0
   94.3328  133.5974  124.7500 C   0  0  0  0  0
   93.1050  132.9966  125.0252 C   0  0  0  0  0
   92.5855  132.0448  124.1510 C   0  0  0  0  0
   93.2953  131.6940  123.0028 C   0  0  0  0  0
   94.5368  132.2833  122.7050 C   0  0  0  0  0
   95.2252  131.8543  121.4565 C   0  0  0  0  0
   96.5410  132.2375  121.1568 C   0  0  0  0  0
   97.1344  131.8147  119.9657 C   0  0  0  0  0
   96.4186  131.0105  119.0791 C   0  0  0  0  0
   95.1155  130.6346  119.4049 C   0  0  0  0  0
   94.3213  129.7873  118.4673 C   0  0  0  0  0
   93.0711  131.2283  116.8488 C   0  0  0  0  0
   91.8325  131.8743  116.7623 C   0  0  0  0  0
   91.1766  131.5233  117.9264 C   0  0  0  0  0
   89.9250  131.9104  118.3963 C   0  0  0  0  0
   89.5226  131.4261  119.6547 C   0  0  0  0  0
   90.3681  130.5791  120.4133 C   0  0  0  0  0
   88.7938  130.4125  122.4351 C   0  0  0  0  0
   88.5403  129.7459  123.7652 C   0  0  0  0  0
   89.5232  130.2943  124.7805 C   0  0  0  0  0
   87.1320  130.0231  124.2779 C   0  0  0  0  0
   88.7497  128.2364  123.6633 C   0  0  0  0  0
   91.6234  130.2080  119.9000 C   0  0  0  0  0
   91.9940  130.7034  118.6494 C   0  0  0  0  0
   96.2874  133.8782  123.3338 O   0  0  0  0  0
   87.9981  131.2900  121.9994 O   0  0  0  0  0
   87.8521  127.6655  122.7560 O   0  0  0  0  0
   92.4175  133.3399  126.1398 F   0  0  0  0  0
   93.1499  130.5162  117.9967 N   0  0  0  0  0
   89.9845  130.0831  121.7024 N   0  0  0  0  0
   94.5595  131.0592  120.5721 N   0  0  0  0  0
  1 27  1  0  0  0
  2 27  1  0  0  0
  3  4  1  0  0  0
  4 30  1  0  0  0
  5  6  1  0  0  0
  7  8  1  0  0  0
  7  2  1  0  0  0
  8 33  1  0  0  0
  9 10  1  0  0  0
 11 12  1  0  0  0
 13 12  1  0  0  0
 13 31  1  0  0  0
 15 16  1  0  0  0
 17 18  1  0  0  0
 19 32  1  0  0  0
 19 25  1  0  0  0
 21 20  1  0  0  0
 21 22  1  0  0  0
 21 23  1  0  0  0
 21 24  1  0  0  0
 24 29  1  0  0  0
 26 31  1  0  0  0
 26 16  1  0  0  0
 31 14  1  0  0  0
 32 20  1  0  0  0
  2  3  2  0  0  0
  4  5  2  0  0  0
  6  7  2  0  0  0
  8  9  2  0  0  0
 10 11  2  0  0  0
 12 33  2  0  0  0
 14 15  2  0  0  0
 16 17  2  0  0  0
 18 19  2  0  0  0
 20 28  2  0  0  0
 25 26  2  0  0  0
M  END
> <rmsd>
0.606189072

$$$$
CHEMBL1760654_5U09


 29 31  0  0  0  0  0  0  0  0999 V2000
   95.4390  132.8749  122.8715 C   0  0  0  0  0
   95.5636  132.1219  121.5965 C   0  0  0  0  0
   96.6665  132.3313  120.7659 C   0  0  0  0  0
   96.7832  131.6220  119.5677 C   0  0  0  0  0
   95.7983  130.7024  119.1926 C   0  0  0  0  0
   95.9660  129.9578  117.9115 C   0  0  0  0  0
   94.6831  130.4926  120.0272 C   0  0  0  0  0
   93.6027  129.5237  119.6547 C   0  0  0  0  0
   91.3112  130.4581  120.1948 C   0  0  0  0  0
   91.2066  129.9638  121.5811 C   0  0  0  0  0
   89.9255  129.8856  123.7555 C   0  0  0  0  0
   88.6506  130.4399  124.3929 C   0  0  0  0  0
   88.5091  129.8119  125.7630 C   0  0  0  0  0
   87.4252  130.0605  123.5747 C   0  0  0  0  0
   88.7298  131.9550  124.5801 C   0  0  0  0  0
   90.3225  131.2289  119.5750 C   0  0  0  0  0
   90.8282  131.4613  118.3115 C   0  0  0  0  0
   90.2754  132.1815  117.2555 C   0  0  0  0  0
   91.0172  132.2688  116.0634 C   0  0  0  0  0
   90.4891  133.0001  114.9470 C   0  0  0  0  0
   92.2784  131.6431  115.9585 C   0  0  0  0  0
   92.8115  130.9231  117.0418 C   0  0  0  0  0
   92.0510  130.8533  118.2099 C   0  0  0  0  0
   94.5762  131.2053  121.2283 C   0  0  0  0  0
   92.3591  130.2309  119.3587 N   0  0  0  0  0
   90.0813  130.3359  122.3786 N   0  0  0  0  0
   90.0633  133.5897  114.0469 N   0  0  0  0  0
   92.0983  129.2143  122.0627 O   0  0  0  0  0
   88.7237  132.6272  123.3549 O   0  0  0  0  0
  1  2  1  0  0  0
  3  4  1  0  0  0
  5  7  1  0  0  0
  6  5  1  0  0  0
  8  7  1  0  0  0
  8 25  1  0  0  0
  9 10  1  0  0  0
 10 26  1  0  0  0
 11 26  1  0  0  0
 11 12  1  0  0  0
 12 13  1  0  0  0
 12 14  1  0  0  0
 12 15  1  0  0  0
 15 29  1  0  0  0
 16 17  1  0  0  0
 18 19  1  0  0  0
 19 20  1  0  0  0
 21 22  1  0  0  0
 23 25  1  0  0  0
 23 17  1  0  0  0
 24  2  1  0  0  0
 25  9  1  0  0  0
  2  3  2  0  0  0
  4  5  2  0  0  0
  7 24  2  0  0  0
  9 16  2  0  0  0
 10 28  2  0  0  0
 17 18  2  0  0  0
 19 21  2  0  0  0
 22 23  2  0  0  0
 20 27  3  0  0  0
M  END
> <rmsd>
0.25402239

$$$$
CHEMBL497304_6N4B


 29 32  0  0  0  0  0  0  0  0999 V2000
   93.1867  131.8625  114.7828 C   0  0  0  0  0
   92.3376  131.7387  115.9957 C   0  0  0  0  0
   91.0779  132.3376  116.0278 C   0  0  0  0  0
   90.2920  132.2134  117.1731 C   0  0  0  0  0
   90.7672  131.4945  118.2774 C   0  0  0  0  0
   90.0002  131.3519  119.4442 C   0  0  0  0  0
   90.5194  130.6193  120.5335 C   0  0  0  0  0
   89.7797  130.4197  121.8055 C   0  0  0  0  0
   87.6123  130.8624  123.1664 C   0  0  0  0  0
   88.1660  131.6085  124.3873 C   0  0  0  0  0
   89.1201  130.7504  125.2142 C   0  0  0  0  0
   88.4612  129.4277  125.5843 C   0  0  0  0  0
   88.1269  128.6507  124.3173 C   0  0  0  0  0
   87.1374  129.4328  123.4571 C   0  0  0  0  0
   91.7964  130.0560  120.4094 C   0  0  0  0  0
   93.8598  129.5946  119.2366 C   0  0  0  0  0
   94.8807  130.5404  119.7762 C   0  0  0  0  0
   95.5434  131.4222  118.9152 C   0  0  0  0  0
   96.4814  132.3254  119.4243 C   0  0  0  0  0
   96.7547  132.3508  120.7953 C   0  0  0  0  0
   96.0882  131.4750  121.6579 C   0  0  0  0  0
   95.1502  130.5716  121.1490 C   0  0  0  0  0
   92.0477  130.9039  118.2078 C   0  0  0  0  0
   88.8557  131.8798  119.5077 O   0  0  0  0  0
   90.3195  129.7618  122.7348 O   0  0  0  0  0
   88.4650  130.9661  121.9819 N   0  0  0  0  0
   92.5321  130.1996  119.2741 N   0  0  0  0  0
   92.7903  131.0425  117.0721 N   0  0  0  0  0
   97.6633  133.2259  121.2885 F   0  0  0  0  0
  1  2  1  0  0  0
  2 28  1  0  0  0
  3  4  1  0  0  0
  5  6  1  0  0  0
  6  7  1  0  0  0
  7  8  1  0  0  0
  8 26  1  0  0  0
  9 26  1  0  0  0
  9 10  1  0  0  0
 10 11  1  0  0  0
 11 12  1  0  0  0
 12 13  1  0  0  0
 13 14  1  0  0  0
 14  9  1  0  0  0
 15 27  1  0  0  0
 16 27  1  0  0  0
 16 17  1  0  0  0
 18 19  1  0  0  0
 20 29  1  0  0  0
 20 21  1  0  0  0
 22 17  1  0  0  0
 23  5  1  0  0  0
 27 23  1  0  0  0
  2  3  2  0  0  0
  4  5  2  0  0  0
  6 24  2  0  0  0
  7 15  2  0  0  0
  8 25  2  0  0  0
 17 18  2  0  0  0
 19 20  2  0  0  0
 21 22  2  0  0  0
 23 28  2  0  0  0
M  END
> <rmsd>
0.197538435

$$$$
CHEMBL1760661_5U09


 33 35  0  0  0  0  0  0  0  0999 V2000
   96.7443  130.7229  116.8671 C   0  0  0  0  0
   95.7074  130.8886  119.1104 C   0  0  0  0  0
   96.6578  131.8282  119.5414 C   0  0  0  0  0
   96.5982  132.3535  120.8337 C   0  0  0  0  0
   95.5871  131.9471  121.7169 C   0  0  0  0  0
   96.3960  133.4091  123.5727 C   0  0  0  0  0
   94.6405  131.0130  121.2887 C   0  0  0  0  0
   94.6935  130.4823  119.9945 C   0  0  0  0  0
   93.6517  129.4995  119.5619 C   0  0  0  0  0
   91.3412  130.2902  120.2347 C   0  0  0  0  0
   91.2981  129.6866  121.5806 C   0  0  0  0  0
   90.0906  129.3893  123.7781 C   0  0  0  0  0
   88.8148  129.8417  124.4818 C   0  0  0  0  0
   88.7947  131.3527  124.6230 C   0  0  0  0  0
   87.5919  129.3902  123.7046 C   0  0  0  0  0
   90.3041  131.0632  119.7034 C   0  0  0  0  0
   90.7608  131.4113  118.4478 C   0  0  0  0  0
   90.1474  132.1850  117.4656 C   0  0  0  0  0
   90.8479  132.3926  116.2634 C   0  0  0  0  0
   90.2568  133.1830  115.2213 C   0  0  0  0  0
   92.1288  131.8297  116.0757 C   0  0  0  0  0
   92.7234  131.0532  117.0855 C   0  0  0  0  0
   92.0028  130.8643  118.2659 C   0  0  0  0  0
   95.7569  130.3508  117.8189 O   0  0  0  0  0
   95.4951  132.4519  123.0202 O   0  0  0  0  0
   92.2284  128.9324  121.9739 O   0  0  0  0  0
   88.7762  129.2707  125.7526 O   0  0  0  0  0
   96.0182  133.6865  124.8721 F   0  0  0  0  0
   97.6831  132.9020  123.5773 F   0  0  0  0  0
   96.3581  134.5781  122.8340 F   0  0  0  0  0
   92.3711  130.1709  119.3549 N   0  0  0  0  0
   90.1880  129.9559  122.4387 N   0  0  0  0  0
   89.7802  133.8204  114.3811 N   0  0  0  0  0
  1 24  1  0  0  0
  2 24  1  0  0  0
  3  4  1  0  0  0
  5 25  1  0  0  0
  5  7  1  0  0  0
  6 25  1  0  0  0
  6 28  1  0  0  0
  6 29  1  0  0  0
  6 30  1  0  0  0
  8  2  1  0  0  0
  9  8  1  0  0  0
  9 31  1  0  0  0
 10 11  1  0  0  0
 11 32  1  0  0  0
 12 32  1  0  0  0
 12 13  1  0  0  0
 13 14  1  0  0  0
 13 15  1  0  0  0
 13 27  1  0  0  0
 16 17  1  0  0  0
 18 19  1  0  0  0
 19 20  1  0  0  0
 21 22  1  0  0  0
 23 31  1  0  0  0
 23 17  1  0  0  0
 31 10  1  0  0  0
  2  3  2  0  0  0
  4  5  2  0  0  0
  7  8  2  0  0  0
 10 16  2  0  0  0
 11 26  2  0  0  0
 17 18  2  0  0  0
 19 21  2  0  0  0
 22 23  2  0  0  0
 20 33  3  0  0  0
M  END
> <rmsd>
0.196107656

$$$$
CHEMBL1760658_5U09


 33 36  0  0  0  0  0  0  0  0999 V2000
   94.5533  128.6951  122.4047 C   0  0  0  0  0
   94.9942  130.6753  120.9832 C   0  0  0  0  0
   96.2844  130.2258  120.6633 C   0  0  0  0  0
   97.1069  130.9743  119.8196 C   0  0  0  0  0
   96.6668  132.1986  119.2902 C   0  0  0  0  0
   97.5253  132.9771  118.3114 C   0  0  0  0  0
   97.1821  132.5497  116.8971 C   0  0  0  0  0
   97.2875  134.4743  118.4363 C   0  0  0  0  0
   99.0089  132.7314  118.5437 C   0  0  0  0  0
   95.3648  132.6300  119.5934 C   0  0  0  0  0
   94.5348  131.8866  120.4379 C   0  0  0  0  0
   93.1528  132.3935  120.7115 C   0  0  0  0  0
   91.2138  130.7797  120.4995 C   0  0  0  0  0
   90.9898  130.5392  121.9380 C   0  0  0  0  0
   89.6943  129.3249  123.7462 C   0  0  0  0  0
   88.6264  130.3022  124.2164 C   0  0  0  0  0
   88.9359  131.7786  124.3925 C   0  0  0  0  0
   87.6445  129.7338  125.2122 C   0  0  0  0  0
   87.2179  129.9895  123.7711 C   0  0  0  0  0
   90.4468  130.1866  119.4921 C   0  0  0  0  0
   90.9694  130.7097  118.3266 C   0  0  0  0  0
   90.5929  130.4781  117.0059 C   0  0  0  0  0
   91.2980  131.1566  115.9954 C   0  0  0  0  0
   90.9471  130.9495  114.6190 C   0  0  0  0  0
   92.3474  132.0408  116.3260 C   0  0  0  0  0
   92.7048  132.2555  117.6684 C   0  0  0  0  0
   91.9891  131.5652  118.6484 C   0  0  0  0  0
   94.1619  129.9338  121.8289 O   0  0  0  0  0
   91.6380  131.1872  122.8031 O   0  0  0  0  0
   89.8966  131.9485  125.3898 O   0  0  0  0  0
   92.1564  131.6115  119.9810 N   0  0  0  0  0
   90.0278  129.5637  122.3487 N   0  0  0  0  0
   90.6641  130.7826  113.5094 N   0  0  0  0  0
  1 28  1  0  0  0
  2 28  1  0  0  0
  3  4  1  0  0  0
  5 10  1  0  0  0
  6  5  1  0  0  0
  6  7  1  0  0  0
  6  8  1  0  0  0
  6  9  1  0  0  0
 11  2  1  0  0  0
 12 11  1  0  0  0
 12 31  1  0  0  0
 13 14  1  0  0  0
 14 32  1  0  0  0
 15 32  1  0  0  0
 15 16  1  0  0  0
 16 17  1  0  0  0
 16 18  1  0  0  0
 17 30  1  0  0  0
 18 19  1  0  0  0
 19 16  1  0  0  0
 20 21  1  0  0  0
 22 23  1  0  0  0
 23 24  1  0  0  0
 25 26  1  0  0  0
 27 31  1  0  0  0
 27 21  1  0  0  0
 31 13  1  0  0  0
  2  3  2  0  0  0
  4  5  2  0  0  0
 10 11  2  0  0  0
 13 20  2  0  0  0
 14 29  2  0  0  0
 21 22  2  0  0  0
 23 25  2  0  0  0
 26 27  2  0  0  0
 24 33  3  0  0  0
M  END
> <rmsd>
0.256131709

$$$$
CHEMBL250768_6N4B


 28 31  0  0  0  0  0  0  0  0999 V2000
   90.8748  128.2476  122.0928 O   0  0  0  0  0
   88.8335  130.9674  119.7559 O   0  0  0  0  0
   90.1615  129.0418  121.4197 C   0  0  0  0  0
   88.1679  128.5770  122.9243 C   0  0  0  0  0
   86.6391  128.6137  122.8556 C   0  0  0  0  0
   86.0187  129.9320  122.3693 C   0  0  0  0  0
   86.6746  131.2148  122.8848 C   0  0  0  0  0
   87.1195  131.1227  124.3349 C   0  0  0  0  0
   88.5659  130.6548  124.3829 C   0  0  0  0  0
   88.6852  129.1377  124.2534 C   0  0  0  0  0
   90.7582  129.7723  120.2736 C   0  0  0  0  0
   92.0980  129.5257  119.9511 C   0  0  0  0  0
   94.1195  129.8455  118.6729 C   0  0  0  0  0
   95.0025  130.6942  119.5266 C   0  0  0  0  0
   95.3541  130.2669  120.8120 C   0  0  0  0  0
   96.1613  131.0722  121.6213 C   0  0  0  0  0
   96.6142  132.3076  121.1481 C   0  0  0  0  0
   96.2587  132.7387  119.8663 C   0  0  0  0  0
   95.4515  131.9336  119.0570 C   0  0  0  0  0
   92.0362  131.0687  118.1473 C   0  0  0  0  0
   92.6650  131.7218  117.0722 C   0  0  0  0  0
   91.9667  132.6472  116.2942 C   0  0  0  0  0
   90.6307  132.9324  116.5782 C   0  0  0  0  0
   89.9896  132.2917  117.6401 C   0  0  0  0  0
   90.6797  131.3588  118.4300 C   0  0  0  0  0
   90.0417  130.7081  119.4983 C   0  0  0  0  0
   88.7862  129.2222  121.7704 N   0  0  0  0  0
   92.7134  130.1603  118.9170 N   0  0  0  0  0
  3 27  1  0  0  0
  3 11  1  0  0  0
  4 27  1  0  0  0
  4  5  1  0  0  0
  5  6  1  0  0  0
  6  7  1  0  0  0
  7  8  1  0  0  0
  8  9  1  0  0  0
  9 10  1  0  0  0
 10  4  1  0  0  0
 12 28  1  0  0  0
 13 28  1  0  0  0
 13 14  1  0  0  0
 15 16  1  0  0  0
 17 18  1  0  0  0
 19 14  1  0  0  0
 21 22  1  0  0  0
 23 24  1  0  0  0
 25 26  1  0  0  0
 25 20  1  0  0  0
 26 11  1  0  0  0
 28 20  1  0  0  0
  3  1  2  0  0  0
 11 12  2  0  0  0
 14 15  2  0  0  0
 16 17  2  0  0  0
 18 19  2  0  0  0
 20 21  2  0  0  0
 22 23  2  0  0  0
 24 25  2  0  0  0
 26  2  2  0  0  0
M  END
> <rmsd>
0.341867566

$$$$
CHEMBL1760656_5U09


 34 37  0  0  0  0  0  0  0  0999 V2000
   88.8607  130.3442  124.6390 C   0  0  0  0  0
   90.1833  130.9939  124.2212 C   0  0  0  0  0
   91.3008  130.5857  121.9932 C   0  0  0  0  0
   91.3328  130.8135  120.5358 C   0  0  0  0  0
   91.9362  130.7729  118.4675 C   0  0  0  0  0
   92.6011  130.5588  117.2592 C   0  0  0  0  0
   92.0386  131.1161  116.0977 C   0  0  0  0  0
   90.8432  131.8638  116.1664 C   0  0  0  0  0
   90.1972  132.0629  117.4001 C   0  0  0  0  0
   90.7771  131.4989  118.5338 C   0  0  0  0  0
   90.3597  131.5462  119.8490 C   0  0  0  0  0
   90.2838  132.4255  114.9699 C   0  0  0  0  0
   93.4930  129.5912  120.0299 C   0  0  0  0  0
   94.6658  130.5114  120.1568 C   0  0  0  0  0
   94.7541  131.3613  121.2656 C   0  0  0  0  0
   95.8268  132.2454  121.4040 C   0  0  0  0  0
   96.8221  132.2768  120.4161 C   0  0  0  0  0
   96.7410  131.4318  119.3075 C   0  0  0  0  0
   95.6637  130.5421  119.1679 C   0  0  0  0  0
   96.5349  129.6700  117.0196 C   0  0  0  0  0
   96.9121  134.0220  122.7832 C   0  0  0  0  0
   88.6210  130.1257  126.1334 C   0  0  0  0  0
   88.3180  129.2731  123.7154 C   0  0  0  0  0
   87.6426  130.6436  123.7889 C   0  0  0  0  0
   90.2761  131.1963  122.7800 N   0  0  0  0  0
   92.2880  130.3436  119.6898 N   0  0  0  0  0
   89.8327  132.8784  114.0051 N   0  0  0  0  0
   92.1627  129.8501  122.5452 O   0  0  0  0  0
   95.5713  129.6865  118.0638 O   0  0  0  0  0
   95.8742  133.0778  122.5296 O   0  0  0  0  0
   87.3746  129.5464  126.3903 O   0  0  0  0  0
   96.6494  134.6723  123.9733 F   0  0  0  0  0
   98.1298  133.3732  122.8844 F   0  0  0  0  0
   96.9646  134.9550  121.7631 F   0  0  0  0  0
  1  2  1  0  0  0
  1 22  1  0  0  0
  1 23  1  0  0  0
  2 25  1  0  0  0
  3  4  1  0  0  0
  4 26  1  0  0  0
  6  7  1  0  0  0
  8  9  1  0  0  0
  8 12  1  0  0  0
 10 11  1  0  0  0
 10  5  1  0  0  0
 13 26  1  0  0  0
 13 14  1  0  0  0
 15 16  1  0  0  0
 16 30  1  0  0  0
 17 18  1  0  0  0
 19 29  1  0  0  0
 19 14  1  0  0  0
 20 29  1  0  0  0
 21 30  1  0  0  0
 21 32  1  0  0  0
 21 33  1  0  0  0
 21 34  1  0  0  0
 22 31  1  0  0  0
 23 24  1  0  0  0
 24  1  1  0  0  0
 25  3  1  0  0  0
 26  5  1  0  0  0
  3 28  2  0  0  0
  5  6  2  0  0  0
  7  8  2  0  0  0
  9 10  2  0  0  0
 11  4  2  0  0  0
 14 15  2  0  0  0
 16 17  2  0  0  0
 18 19  2  0  0  0
 12 27  3  0  0  0
M  END
> <rmsd>
0.17029053

$$$$
CHEMBL271824_5TGZ


 30 33  0  0  0  0  0  0  0  0999 V2000
   92.8972  130.7580  120.0299 N   0  0  0  0  0
   92.1732  130.7619  121.1412 N   0  0  0  0  0
   92.5382  130.2055  117.6419 N   0  0  0  0  0
   90.1095  130.5775  123.1893 N   0  0  0  0  0
   90.9014  130.4460  120.8170 C   0  0  0  0  0
   90.8134  130.2357  119.4499 C   0  0  0  0  0
   92.0953  130.4408  118.9871 C   0  0  0  0  0
   92.1485  130.8672  116.5375 C   0  0  0  0  0
   92.7475  130.3389  115.4096 C   0  0  0  0  0
   93.5371  129.2847  115.8528 C   0  0  0  0  0
   93.3761  129.2386  117.2246 C   0  0  0  0  0
   94.0147  128.2263  118.1138 C   0  0  0  0  0
   91.2197  132.0332  116.5304 C   0  0  0  0  0
   89.6300  129.7924  118.6582 C   0  0  0  0  0
   89.8187  130.3379  121.8065 C   0  0  0  0  0
   89.1747  130.5184  124.3134 C   0  0  0  0  0
   88.6386  129.1078  124.5906 C   0  0  0  0  0
   87.3992  128.7797  123.7619 C   0  0  0  0  0
   86.3370  129.8566  123.9437 C   0  0  0  0  0
   86.8760  131.1946  123.4543 C   0  0  0  0  0
   88.0967  131.6093  124.2717 C   0  0  0  0  0
   94.2954  131.0970  120.0067 C   0  0  0  0  0
   94.9219  131.5164  118.8240 C   0  0  0  0  0
   96.2743  131.8636  118.8220 C   0  0  0  0  0
   97.0179  131.8039  120.0034 C   0  0  0  0  0
   96.3978  131.3978  121.1967 C   0  0  0  0  0
   95.0433  131.0516  121.1917 C   0  0  0  0  0
   88.6534  130.0394  121.4355 O   0  0  0  0  0
   97.2831  131.3141  122.7106 Cl  0  0  0  0  0
   98.7159  132.2482  119.9545 Cl  0  0  0  0  0
  1  2  1  0  0  0
  1 22  1  0  0  0
  3  8  1  0  0  0
  5  6  1  0  0  0
  5 15  1  0  0  0
  7  3  1  0  0  0
  7  1  1  0  0  0
  9 10  1  0  0  0
 11  3  1  0  0  0
 12 11  1  0  0  0
 13  8  1  0  0  0
 14  6  1  0  0  0
 15  4  1  0  0  0
 16  4  1  0  0  0
 16 17  1  0  0  0
 17 18  1  0  0  0
 18 19  1  0  0  0
 19 20  1  0  0  0
 20 21  1  0  0  0
 21 16  1  0  0  0
 23 24  1  0  0  0
 25 26  1  0  0  0
 25 30  1  0  0  0
 26 29  1  0  0  0
 27 22  1  0  0  0
  5  2  2  0  0  0
  6  7  2  0  0  0
  8  9  2  0  0  0
 10 11  2  0  0  0
 15 28  2  0  0  0
 22 23  2  0  0  0
 24 25  2  0  0  0
 26 27  2  0  0  0
M  END
> <rmsd>
0.685655773

$$$$
CHEMBL3234680_6KQI


 30 35  0  0  0  0  0  0  0  0999 V2000
   88.5247  130.5667  120.5277 O   0  0  0  0  0
   89.6664  130.6165  121.0602 C   0  0  0  0  0
   88.7139  130.2108  123.4054 C   0  0  0  0  0
   89.2821  130.0839  124.8292 C   0  0  0  0  0
   88.1455  129.8342  125.8344 C   0  0  0  0  0
   87.4121  128.5369  125.4576 C   0  0  0  0  0
   86.8330  128.6545  124.0387 C   0  0  0  0  0
   85.8508  129.8365  123.9879 C   0  0  0  0  0
   86.5741  131.1404  124.3634 C   0  0  0  0  0
   87.1548  131.0083  125.7806 C   0  0  0  0  0
   87.7205  131.3886  123.3706 C   0  0  0  0  0
   87.9792  128.9045  123.0461 C   0  0  0  0  0
   90.8580  130.8484  120.2325 C   0  0  0  0  0
   94.3723  131.2676  119.8953 C   0  0  0  0  0
   95.2186  131.5722  118.8189 C   0  0  0  0  0
   96.5976  131.6868  119.0088 C   0  0  0  0  0
   97.1514  131.4996  120.2776 C   0  0  0  0  0
   96.3148  131.1958  121.3641 C   0  0  0  0  0
   94.9355  131.0827  121.1668 C   0  0  0  0  0
   92.2286  131.2533  118.5780 C   0  0  0  0  0
   90.9030  131.0397  118.8648 C   0  0  0  0  0
   89.7953  131.1493  117.8625 C   0  0  0  0  0
   90.3560  131.0080  116.4405 C   0  0  0  0  0
   91.6051  131.8804  116.2466 C   0  0  0  0  0
   92.7416  131.4363  117.1789 C   0  0  0  0  0
   89.8143  130.4468  122.4756 N   0  0  0  0  0
   92.1134  130.9107  120.7270 N   0  0  0  0  0
   92.9469  131.1490  119.7205 N   0  0  0  0  0
   98.8898  131.6530  120.4705 Cl  0  0  0  0  0
   96.9576  130.9520  122.9796 Cl  0  0  0  0  0
  2 26  1  0  0  0
  2 13  1  0  0  0
  3 26  1  0  0  0
  3  4  1  0  0  0
  5  4  1  0  0  0
  5  6  1  0  0  0
  7  6  1  0  0  0
  7  8  1  0  0  0
  7 12  1  0  0  0
  9  8  1  0  0  0
  9 10  1  0  0  0
  9 11  1  0  0  0
 10  5  1  0  0  0
 11  3  1  0  0  0
 12  3  1  0  0  0
 15 16  1  0  0  0
 17 29  1  0  0  0
 17 18  1  0  0  0
 18 30  1  0  0  0
 19 14  1  0  0  0
 21 13  1  0  0  0
 22 21  1  0  0  0
 22 23  1  0  0  0
 23 24  1  0  0  0
 24 25  1  0  0  0
 25 20  1  0  0  0
 28 27  1  0  0  0
 28 14  1  0  0  0
 28 20  1  0  0  0
  2  1  2  0  0  0
 13 27  2  0  0  0
 14 15  2  0  0  0
 16 17  2  0  0  0
 18 19  2  0  0  0
 20 21  2  0  0  0
M  END
> <rmsd>
0.456199199

$$$$
CHEMBL1828800_6N4B


 28 31  0  0  0  0  0  0  0  0999 V2000
   88.3078  129.8403  124.6173 C   0  0  0  0  0
   87.9676  130.6933  123.4138 C   0  0  0  0  0
   88.4489  130.0036  122.1553 C   0  0  0  0  0
   88.1166  130.8615  120.9501 C   0  0  0  0  0
   88.6164  130.2027  119.6735 C   0  0  0  0  0
   91.0347  129.8611  120.2449 C   0  0  0  0  0
   92.2711  130.2751  119.7501 C   0  0  0  0  0
   93.5829  129.8377  120.2685 C   0  0  0  0  0
   94.7824  130.7004  120.2274 C   0  0  0  0  0
   94.6676  132.0968  120.1895 C   0  0  0  0  0
   95.8087  132.9008  120.1844 C   0  0  0  0  0
   97.0755  132.3152  120.2278 C   0  0  0  0  0
   97.2157  130.9193  120.2811 C   0  0  0  0  0
   98.5600  130.2965  120.3341 C   0  0  0  0  0
   99.7181  131.0925  120.3303 C   0  0  0  0  0
  100.9855  130.5051  120.3801 C   0  0  0  0  0
  101.1096  129.1149  120.4342 C   0  0  0  0  0
   99.9668  128.3118  120.4385 C   0  0  0  0  0
   98.6995  128.8992  120.3887 C   0  0  0  0  0
   96.0587  130.1230  120.2860 C   0  0  0  0  0
   92.0019  131.0784  118.6537 C   0  0  0  0  0
   92.8464  131.6955  117.7303 C   0  0  0  0  0
   92.2526  132.4214  116.6829 C   0  0  0  0  0
   90.8482  132.5013  116.5724 C   0  0  0  0  0
   90.0202  131.8512  117.5042 C   0  0  0  0  0
   90.6379  131.1432  118.5364 C   0  0  0  0  0
   90.0483  130.4186  119.5030 N   0  0  0  0  0
   93.6717  128.6914  120.7864 O   0  0  0  0  0
  1  2  1  0  0  0
  2  3  1  0  0  0
  3  4  1  0  0  0
  4  5  1  0  0  0
  5 27  1  0  0  0
  7  8  1  0  0  0
  7 21  1  0  0  0
  8  9  1  0  0  0
 10 11  1  0  0  0
 12 13  1  0  0  0
 13 14  1  0  0  0
 15 16  1  0  0  0
 17 18  1  0  0  0
 19 14  1  0  0  0
 20  9  1  0  0  0
 22 23  1  0  0  0
 24 25  1  0  0  0
 26 27  1  0  0  0
 26 21  1  0  0  0
 27  6  1  0  0  0
  6  7  2  0  0  0
  8 28  2  0  0  0
  9 10  2  0  0  0
 11 12  2  0  0  0
 13 20  2  0  0  0
 14 15  2  0  0  0
 16 17  2  0  0  0
 18 19  2  0  0  0
 21 22  2  0  0  0
 23 24  2  0  0  0
 25 26  2  0  0  0
M  END
> <rmsd>
0.310836464

$$$$
CHEMBL3260741_5TGZ


 37 41  0  0  0  0  0  0  0  0999 V2000
   88.4239  129.9335  119.8983 C   0  0  0  0  0
   88.6589  130.6775  121.1671 C   0  0  0  0  0
   88.4697  130.7076  123.5427 C   0  0  0  0  0
   88.0179  130.0392  124.8055 C   0  0  0  0  0
   89.0243  131.9903  123.5882 C   0  0  0  0  0
   89.4100  132.6113  122.4014 C   0  0  0  0  0
   89.2394  131.9611  121.1772 C   0  0  0  0  0
   89.6758  132.6701  119.9268 C   0  0  0  0  0
   92.0477  131.9614  119.9321 C   0  0  0  0  0
   93.1454  131.2948  119.3183 C   0  0  0  0  0
   94.4640  131.2846  119.9964 C   0  0  0  0  0
   94.5854  130.7894  121.3006 C   0  0  0  0  0
   95.8351  130.7911  121.9234 C   0  0  0  0  0
   96.8323  131.7643  120.0018 C   0  0  0  0  0
   95.6005  131.7807  119.3447 C   0  0  0  0  0
   92.9722  130.6987  118.0378 C   0  0  0  0  0
   94.0380  129.9262  117.3567 C   0  0  0  0  0
   94.3580  130.1899  116.0165 C   0  0  0  0  0
   95.3578  129.4566  115.3714 C   0  0  0  0  0
   96.0424  128.4522  116.0605 C   0  0  0  0  0
   95.7249  128.1773  117.3930 C   0  0  0  0  0
   94.7249  128.9098  118.0381 C   0  0  0  0  0
   91.7171  130.8400  117.4455 C   0  0  0  0  0
   89.2349  130.4694  114.9444 C   0  0  0  0  0
   89.6941  131.4167  117.2181 C   0  0  0  0  0
   88.2910  130.0946  122.3401 N   0  0  0  0  0
   90.8281  132.0108  119.3019 N   0  0  0  0  0
   96.9240  131.2733  121.2667 N   0  0  0  0  0
   91.3274  130.3779  116.2344 N   0  0  0  0  0
   90.0589  130.7505  116.1068 N   0  0  0  0  0
   90.7236  131.4776  118.0815 N   0  0  0  0  0
   86.8470  130.6289  125.2439 F   0  0  0  0  0
   87.7891  128.6926  124.5835 F   0  0  0  0  0
   88.9876  130.1705  125.7836 F   0  0  0  0  0
   92.2035  132.5272  121.0502 O   0  0  0  0  0
   88.5523  131.9152  117.4105 O   0  0  0  0  0
   97.2954  127.5354  115.2530 Cl  0  0  0  0  0
  1  2  1  0  0  0
  3 26  1  0  0  0
  4  3  1  0  0  0
  4 32  1  0  0  0
  4 33  1  0  0  0
  4 34  1  0  0  0
  5  6  1  0  0  0
  7  2  1  0  0  0
  8  7  1  0  0  0
  8 27  1  0  0  0
  9 10  1  0  0  0
 10 11  1  0  0  0
 12 13  1  0  0  0
 14 28  1  0  0  0
 15 11  1  0  0  0
 16 17  1  0  0  0
 16 23  1  0  0  0
 18 19  1  0  0  0
 20 37  1  0  0  0
 20 21  1  0  0  0
 22 17  1  0  0  0
 24 30  1  0  0  0
 25 31  1  0  0  0
 27  9  1  0  0  0
 30 29  1  0  0  0
 30 25  1  0  0  0
 31 27  1  0  0  0
 31 23  1  0  0  0
  2 26  2  0  0  0
  3  5  2  0  0  0
  6  7  2  0  0  0
  9 35  2  0  0  0
 10 16  2  0  0  0
 11 12  2  0  0  0
 13 28  2  0  0  0
 14 15  2  0  0  0
 17 18  2  0  0  0
 19 20  2  0  0  0
 21 22  2  0  0  0
 23 29  2  0  0  0
 25 36  2  0  0  0
M  END
> <rmsd>
0.812935948

$$$$
CHEMBL4519310_6N4B


 29 32  0  0  0  0  0  0  0  0999 V2000
   92.3560  131.6386  116.2865 C   0  0  0  0  0
   91.0129  132.0690  116.2614 C   0  0  0  0  0
   90.1967  131.9128  117.3945 C   0  0  0  0  0
   90.7544  131.3254  118.5295 C   0  0  0  0  0
   92.0598  130.9091  118.5526 C   0  0  0  0  0
   92.8946  131.0491  117.4435 C   0  0  0  0  0
   92.2907  130.3780  119.8054 C   0  0  0  0  0
   91.0713  130.5039  120.4856 C   0  0  0  0  0
   90.7769  130.0809  121.8743 C   0  0  0  0  0
   89.4914  130.2818  122.3998 C   0  0  0  0  0
   89.1890  129.8930  123.7080 C   0  0  0  0  0
   90.1707  129.2990  124.5047 C   0  0  0  0  0
   91.4540  129.0940  123.9927 C   0  0  0  0  0
   91.7542  129.4833  122.6844 C   0  0  0  0  0
   93.5604  129.7593  120.3277 C   0  0  0  0  0
   93.7705  128.2846  119.9717 C   0  0  0  0  0
   94.7813  130.6307  120.2369 C   0  0  0  0  0
   95.5500  130.6808  119.0647 C   0  0  0  0  0
   96.6766  131.5037  118.9918 C   0  0  0  0  0
   97.0426  132.2845  120.0906 C   0  0  0  0  0
   96.2818  132.2422  121.2617 C   0  0  0  0  0
   95.1539  131.4193  121.3379 C   0  0  0  0  0
   90.1329  131.0882  119.6979 N   0  0  0  0  0
   93.8459  128.0726  118.5347 N   0  0  0  0  0
   87.9442  130.0925  124.2030 F   0  0  0  0  0
   94.4263  131.3949  122.4824 F   0  0  0  0  0
   88.9045  132.3216  117.3785 F   0  0  0  0  0
   92.7977  127.8807  117.8865 O   0  0  0  0  0
   95.0561  127.7539  117.9667 O   0  0  0  0  0
  2  3  1  0  0  0
  3 27  1  0  0  0
  4  5  1  0  0  0
  5  7  1  0  0  0
  6  1  1  0  0  0
  8 23  1  0  0  0
  8  9  1  0  0  0
 10 11  1  0  0  0
 11 25  1  0  0  0
 12 13  1  0  0  0
 14  9  1  0  0  0
 15  7  1  0  0  0
 15 16  1  0  0  0
 15 17  1  0  0  0
 16 24  1  0  0  0
 18 19  1  0  0  0
 20 21  1  0  0  0
 22 26  1  0  0  0
 22 17  1  0  0  0
 23  4  1  0  0  0
 24 29  1  0  0  0
  1  2  2  0  0  0
  3  4  2  0  0  0
  5  6  2  0  0  0
  7  8  2  0  0  0
  9 10  2  0  0  0
 11 12  2  0  0  0
 13 14  2  0  0  0
 17 18  2  0  0  0
 19 20  2  0  0  0
 21 22  2  0  0  0
 24 28  2  0  0  0
M  CHG  2  24   1  29  -1
M  END
> <rmsd>
0.210064203

$$$$
CHEMBL2206846_6N4B


 27 30  0  0  0  0  0  0  0  0999 V2000
   87.7433  129.8414  124.7245 C   0  0  0  0  0
   88.6749  130.4212  123.6816 C   0  0  0  0  0
   87.9646  130.4727  122.3420 C   0  0  0  0  0
   88.8827  131.0456  121.2778 C   0  0  0  0  0
   89.9193  130.0141  120.8608 C   0  0  0  0  0
   92.1240  130.8203  120.0204 C   0  0  0  0  0
   92.6522  131.3237  118.8306 C   0  0  0  0  0
   94.0492  131.7408  118.6062 C   0  0  0  0  0
   95.0506  131.6156  119.6737 C   0  0  0  0  0
   95.4986  130.3145  119.9348 C   0  0  0  0  0
   96.5104  130.0716  120.8574 C   0  0  0  0  0
   97.1035  131.1335  121.5291 C   0  0  0  0  0
   96.6788  132.4417  121.2968 C   0  0  0  0  0
   97.3105  133.4703  121.9957 C   0  0  0  0  0
   96.9078  134.7888  121.8221 C   0  0  0  0  0
   95.8584  135.0846  120.9584 C   0  0  0  0  0
   95.2038  134.0787  120.2408 C   0  0  0  0  0
   95.6232  132.7192  120.3770 C   0  0  0  0  0
   91.6062  131.3671  117.9268 C   0  0  0  0  0
   91.5572  131.7793  116.5953 C   0  0  0  0  0
   90.3204  131.6942  115.9317 C   0  0  0  0  0
   89.1783  131.2058  116.6024 C   0  0  0  0  0
   89.2579  130.7982  117.9459 C   0  0  0  0  0
   90.4977  130.8969  118.5797 C   0  0  0  0  0
   90.8056  130.5701  119.8486 N   0  0  0  0  0
   94.4053  132.1803  117.4799 O   0  0  0  0  0
   93.7153  134.7116  119.2073 Br  0  0  0  0  0
  1  2  1  0  0  0
  2  3  1  0  0  0
  3  4  1  0  0  0
  4  5  1  0  0  0
  5 25  1  0  0  0
  7  8  1  0  0  0
  7 19  1  0  0  0
  8  9  1  0  0  0
 10 11  1  0  0  0
 12 13  1  0  0  0
 14 15  1  0  0  0
 16 17  1  0  0  0
 17 27  1  0  0  0
 18  9  1  0  0  0
 18 13  1  0  0  0
 20 21  1  0  0  0
 22 23  1  0  0  0
 24 25  1  0  0  0
 24 19  1  0  0  0
 25  6  1  0  0  0
  6  7  2  0  0  0
  8 26  2  0  0  0
  9 10  2  0  0  0
 11 12  2  0  0  0
 13 14  2  0  0  0
 15 16  2  0  0  0
 17 18  2  0  0  0
 19 20  2  0  0  0
 21 22  2  0  0  0
 23 24  2  0  0  0
M  END
> <rmsd>
0.530868173

$$$$
CHEMBL3354941_6N4B


 29 33  0  0  0  0  0  0  0  0999 V2000
   87.0795  129.8295  123.0749 C   0  0  0  0  0
   88.2787  130.5614  123.6713 C   0  0  0  0  0
   88.7178  129.7805  124.8969 C   0  0  0  0  0
   89.3364  131.1807  121.4162 C   0  0  0  0  0
   90.5144  131.1165  120.5434 C   0  0  0  0  0
   91.7972  131.1397  118.7893 C   0  0  0  0  0
   90.6111  131.5758  119.2430 C   0  0  0  0  0
   89.6148  131.7146  118.1636 C   0  0  0  0  0
   90.3740  131.2165  116.9074 C   0  0  0  0  0
   91.8185  130.8781  117.3299 C   0  0  0  0  0
   91.5201  132.1461  116.5447 C   0  0  0  0  0
   93.6403  129.6786  119.6353 C   0  0  0  0  0
   94.8138  130.5582  119.8966 C   0  0  0  0  0
   95.4224  131.2447  118.8401 C   0  0  0  0  0
   96.5056  132.0931  119.0888 C   0  0  0  0  0
   96.9775  132.2599  120.3945 C   0  0  0  0  0
   96.3644  131.5811  121.4522 C   0  0  0  0  0
   95.2811  130.7326  121.2039 C   0  0  0  0  0
   87.9519  131.9848  124.0860 C   0  0  0  0  0
   88.9732  132.8151  124.5799 C   0  0  0  0  0
   88.6987  134.1302  124.9651 C   0  0  0  0  0
   87.3992  134.6317  124.8619 C   0  0  0  0  0
   86.3738  133.8185  124.3744 C   0  0  0  0  0
   86.6478  132.5034  123.9890 C   0  0  0  0  0
   89.3769  130.5549  122.7052 N   0  0  0  0  0
   91.6450  130.4383  120.8477 N   0  0  0  0  0
   92.4083  130.4416  119.7627 N   0  0  0  0  0
   88.3009  131.7897  121.0335 O   0  0  0  0  0
   98.0270  133.0817  120.6353 F   0  0  0  0  0
  1  2  1  0  0  0
  2  3  1  0  0  0
  2 25  1  0  0  0
  2 19  1  0  0  0
  4  5  1  0  0  0
  7  5  1  0  0  0
  8  7  1  0  0  0
  9  8  1  0  0  0
  9 10  1  0  0  0
 10 11  1  0  0  0
 10  6  1  0  0  0
 11  9  1  0  0  0
 12 27  1  0  0  0
 12 13  1  0  0  0
 14 15  1  0  0  0
 16 17  1  0  0  0
 16 29  1  0  0  0
 18 13  1  0  0  0
 20 21  1  0  0  0
 22 23  1  0  0  0
 24 19  1  0  0  0
 25  4  1  0  0  0
 27 26  1  0  0  0
 27  6  1  0  0  0
  4 28  2  0  0  0
  5 26  2  0  0  0
  6  7  2  0  0  0
 13 14  2  0  0  0
 15 16  2  0  0  0
 17 18  2  0  0  0
 19 20  2  0  0  0
 21 22  2  0  0  0
 23 24  2  0  0  0
M  END
> <rmsd>
0.396917641

$$$$
CHEMBL3109780_5U09


 29 32  0  0  0  0  0  0  0  0999 V2000
   91.8129  131.5603  116.5021 C   0  0  0  0  0
   93.2807  133.1907  117.6907 C   0  0  0  0  0
   92.6112  134.3828  118.3508 C   0  0  0  0  0
   93.3360  135.6475  117.9415 C   0  0  0  0  0
   92.0250  135.2784  117.2797 C   0  0  0  0  0
   92.0061  131.4286  118.9902 C   0  0  0  0  0
   90.2065  130.6644  120.3558 C   0  0  0  0  0
   91.0701  130.4347  121.4284 C   0  0  0  0  0
   90.5578  129.9159  122.7076 C   0  0  0  0  0
   88.5898  129.1147  124.0933 C   0  0  0  0  0
   87.2055  128.5149  123.8267 C   0  0  0  0  0
   86.1939  129.5969  123.4532 C   0  0  0  0  0
   86.0993  130.6269  124.5726 C   0  0  0  0  0
   87.4620  131.2779  124.7983 C   0  0  0  0  0
   88.5244  130.2314  125.1460 C   0  0  0  0  0
   92.4322  130.6903  121.2560 C   0  0  0  0  0
   92.9266  131.1767  120.0394 C   0  0  0  0  0
   94.3902  131.3275  119.8884 C   0  0  0  0  0
   95.1521  131.8842  120.9276 C   0  0  0  0  0
   96.5393  132.0010  120.8032 C   0  0  0  0  0
   97.1765  131.5542  119.6426 C   0  0  0  0  0
   96.4284  130.9848  118.6092 C   0  0  0  0  0
   95.0414  130.8673  118.7334 C   0  0  0  0  0
   92.4102  132.0211  117.7438 N   0  0  0  0  0
   90.6860  131.1512  119.1821 N   0  0  0  0  0
   89.1665  129.6127  122.8503 N   0  0  0  0  0
   91.3459  129.7341  123.6759 O   0  0  0  0  0
   88.2756  129.6911  126.4090 O   0  0  0  0  0
   98.9131  131.6997  119.4863 Cl  0  0  0  0  0
  1 24  1  0  0  0
  2 24  1  0  0  0
  2  3  1  0  0  0
  3  4  1  0  0  0
  4  5  1  0  0  0
  5  3  1  0  0  0
  7 25  1  0  0  0
  8  9  1  0  0  0
  8 16  1  0  0  0
  9 26  1  0  0  0
 10 26  1  0  0  0
 10 11  1  0  0  0
 11 12  1  0  0  0
 12 13  1  0  0  0
 13 14  1  0  0  0
 14 15  1  0  0  0
 15 28  1  0  0  0
 15 10  1  0  0  0
 17 18  1  0  0  0
 17  6  1  0  0  0
 19 20  1  0  0  0
 21 29  1  0  0  0
 21 22  1  0  0  0
 23 18  1  0  0  0
 24  6  1  0  0  0
  6 25  2  0  0  0
  7  8  2  0  0  0
  9 27  2  0  0  0
 16 17  2  0  0  0
 18 19  2  0  0  0
 20 21  2  0  0  0
 22 23  2  0  0  0
M  END
> <rmsd>
0.789515078

$$$$
CHEMBL2022363_6N4B


 29 32  0  0  0  0  0  0  0  0999 V2000
   90.7403  128.1610  122.1111 O   0  0  0  0  0
   92.8380  128.5857  120.5925 O   0  0  0  0  0
   90.1435  129.0310  121.4200 C   0  0  0  0  0
   88.0424  128.7449  122.8123 C   0  0  0  0  0
   86.5411  128.9421  122.5832 C   0  0  0  0  0
   85.6739  128.5642  123.7898 C   0  0  0  0  0
   85.8680  129.4629  125.0230 C   0  0  0  0  0
   86.5344  130.8041  124.7008 C   0  0  0  0  0
   88.0546  130.6960  124.4993 C   0  0  0  0  0
   88.5534  129.2861  124.1561 C   0  0  0  0  0
   90.8391  129.7237  120.3075 C   0  0  0  0  0
   90.1346  130.6829  119.5776 C   0  0  0  0  0
   90.7396  131.3576  118.5269 C   0  0  0  0  0
   90.0177  132.3098  117.8020 C   0  0  0  0  0
   90.6221  132.9863  116.7400 C   0  0  0  0  0
   91.9484  132.7112  116.3999 C   0  0  0  0  0
   92.6739  131.7605  117.1227 C   0  0  0  0  0
   92.0823  131.0721  118.1982 C   0  0  0  0  0
   94.1843  129.8539  118.6001 C   0  0  0  0  0
   95.0946  130.7183  119.4100 C   0  0  0  0  0
   95.5492  130.2807  120.6591 C   0  0  0  0  0
   96.3849  131.0975  121.4265 C   0  0  0  0  0
   96.7651  132.3549  120.9475 C   0  0  0  0  0
   96.3085  132.7959  119.7018 C   0  0  0  0  0
   95.4728  131.9790  118.9345 C   0  0  0  0  0
   92.1825  129.4567  119.9550 C   0  0  0  0  0
   88.7785  129.3508  121.7121 N   0  0  0  0  0
   92.7800  130.1358  118.9211 N   0  0  0  0  0
   97.5747  133.1462  121.6909 F   0  0  0  0  0
  3 27  1  0  0  0
  3 11  1  0  0  0
  4 27  1  0  0  0
  4  5  1  0  0  0
  5  6  1  0  0  0
  6  7  1  0  0  0
  7  8  1  0  0  0
  8  9  1  0  0  0
  9 10  1  0  0  0
 10  4  1  0  0  0
 12 13  1  0  0  0
 14 15  1  0  0  0
 16 17  1  0  0  0
 18 28  1  0  0  0
 18 13  1  0  0  0
 19 28  1  0  0  0
 19 20  1  0  0  0
 21 22  1  0  0  0
 23 29  1  0  0  0
 23 24  1  0  0  0
 25 20  1  0  0  0
 26 11  1  0  0  0
 28 26  1  0  0  0
  3  1  2  0  0  0
 11 12  2  0  0  0
 13 14  2  0  0  0
 15 16  2  0  0  0
 17 18  2  0  0  0
 20 21  2  0  0  0
 22 23  2  0  0  0
 24 25  2  0  0  0
 26  2  2  0  0  0
M  END
> <rmsd>
0.421971619

$$$$
CHEMBL498748_5TGZ


 32 36  0  0  0  0  0  0  0  0999 V2000
   90.4689  129.4182  123.5974 C   0  0  0  0  0
   89.6164  130.6269  121.4998 C   0  0  0  0  0
   90.8845  130.6520  120.7512 C   0  0  0  0  0
   92.6800  130.1256  117.7474 C   0  0  0  0  0
   93.7440  129.2228  117.5986 C   0  0  0  0  0
   94.1833  128.8469  116.3276 C   0  0  0  0  0
   93.5589  129.3662  115.1923 C   0  0  0  0  0
   92.4956  130.2612  115.3277 C   0  0  0  0  0
   92.0484  130.6407  116.5971 C   0  0  0  0  0
   92.9804  130.8612  120.1220 C   0  0  0  0  0
   94.4320  131.1465  120.0836 C   0  0  0  0  0
   95.2516  130.7914  121.1646 C   0  0  0  0  0
   96.6211  131.0693  121.1348 C   0  0  0  0  0
   97.1802  131.7069  120.0243 C   0  0  0  0  0
   96.3702  132.0692  118.9452 C   0  0  0  0  0
   95.0008  131.7916  118.9760 C   0  0  0  0  0
   92.1440  131.0062  121.2227 C   0  0  0  0  0
   92.5102  131.5235  122.5872 C   0  0  0  0  0
   91.6464  132.7204  122.9528 C   0  0  0  0  0
   93.0639  132.9357  122.4833 C   0  0  0  0  0
   87.5040  130.8209  121.9494 C   0  0  0  0  0
   88.0751  130.3029  123.2204 C   0  0  0  0  0
   87.4845  128.9430  123.5611 C   0  0  0  0  0
   87.8780  131.2874  124.3592 C   0  0  0  0  0
   89.4848  130.2026  122.8627 N   0  0  0  0  0
   90.9625  130.3512  119.4410 N   0  0  0  0  0
   92.2256  130.4774  119.0639 N   0  0  0  0  0
   88.5003  130.9756  120.9487 N   0  0  0  0  0
   94.1101  128.8974  113.5990 Cl  0  0  0  0  0
   90.7334  131.8002  116.7050 Cl  0  0  0  0  0
   98.8950  132.0540  119.9862 Cl  0  0  0  0  0
   86.2885  131.0898  121.7570 O   0  0  0  0  0
  1 25  1  0  0  0
  2  3  1  0  0  0
  5  6  1  0  0  0
  7 29  1  0  0  0
  7  8  1  0  0  0
  9 30  1  0  0  0
  9  4  1  0  0  0
 10 11  1  0  0  0
 12 13  1  0  0  0
 14 31  1  0  0  0
 14 15  1  0  0  0
 16 11  1  0  0  0
 17  3  1  0  0  0
 18 17  1  0  0  0
 18 19  1  0  0  0
 19 20  1  0  0  0
 20 18  1  0  0  0
 21 28  1  0  0  0
 22 21  1  0  0  0
 22 23  1  0  0  0
 22 24  1  0  0  0
 22 25  1  0  0  0
 25  2  1  0  0  0
 27 26  1  0  0  0
 27  4  1  0  0  0
 27 10  1  0  0  0
  2 28  2  0  0  0
  3 26  2  0  0  0
  4  5  2  0  0  0
  6  7  2  0  0  0
  8  9  2  0  0  0
 10 17  2  0  0  0
 11 12  2  0  0  0
 13 14  2  0  0  0
 15 16  2  0  0  0
 21 32  2  0  0  0
M  END
> <rmsd>
0.697297931

$$$$
CHEMBL1420151_6N4B


 28 31  0  0  0  0  0  0  0  0999 V2000
   91.9938  130.9509  118.4208 C   0  0  0  0  0
   92.0465  132.2166  116.4154 C   0  0  0  0  0
   92.7500  132.6097  115.2743 C   0  0  0  0  0
   92.1552  133.4871  114.3699 C   0  0  0  0  0
   90.8683  133.9629  114.6111 C   0  0  0  0  0
   90.1915  133.5511  115.7604 C   0  0  0  0  0
   90.0931  132.2984  117.7689 C   0  0  0  0  0
   90.6947  131.4160  118.6787 C   0  0  0  0  0
   90.0364  130.9894  119.8295 C   0  0  0  0  0
   90.6501  130.1084  120.7203 C   0  0  0  0  0
   89.8856  129.6967  121.9240 C   0  0  0  0  0
   87.8096  129.8711  123.2601 C   0  0  0  0  0
   88.2846  130.6691  124.4600 C   0  0  0  0  0
   91.9615  129.6580  120.4303 C   0  0  0  0  0
   93.9748  129.6398  119.0176 C   0  0  0  0  0
   94.9720  130.5960  119.5860 C   0  0  0  0  0
   95.3838  130.4726  120.9178 C   0  0  0  0  0
   96.3016  131.3805  121.4547 C   0  0  0  0  0
   96.8065  132.4155  120.6616 C   0  0  0  0  0
   96.3931  132.5432  119.3321 C   0  0  0  0  0
   95.4754  131.6351  118.7952 C   0  0  0  0  0
   92.6316  131.3632  117.2928 N   0  0  0  0  0
   90.7748  132.6903  116.6478 N   0  0  0  0  0
   92.5549  128.8289  121.2312 N   0  0  0  0  0
   92.6066  130.0916  119.2960 N   0  0  0  0  0
   88.9239  132.7266  117.9895 O   0  0  0  0  0
   88.5910  130.1930  122.1160 O   0  0  0  0  0
   90.3859  128.9061  122.7707 O   0  0  0  0  0
  1 22  1  0  0  0
  2  3  1  0  0  0
  4  5  1  0  0  0
  6 23  1  0  0  0
  7  8  1  0  0  0
  8  9  1  0  0  0
 10 11  1  0  0  0
 10 14  1  0  0  0
 11 27  1  0  0  0
 12 27  1  0  0  0
 12 13  1  0  0  0
 14 25  1  0  0  0
 15 25  1  0  0  0
 15 16  1  0  0  0
 17 18  1  0  0  0
 19 20  1  0  0  0
 21 16  1  0  0  0
 23  7  1  0  0  0
 23  2  1  0  0  0
 25  1  1  0  0  0
  2 22  2  0  0  0
  3  4  2  0  0  0
  5  6  2  0  0  0
  7 26  2  0  0  0
  8  1  2  0  0  0
  9 10  2  0  0  0
 11 28  2  0  0  0
 14 24  2  0  0  0
 16 17  2  0  0  0
 18 19  2  0  0  0
 20 21  2  0  0  0
M  END
> <rmsd>
0.337294489

$$$$
CHEMBL2206834_6N4B


 27 30  0  0  0  0  0  0  0  0999 V2000
   88.1426  129.8327  124.5913 C   0  0  0  0  0
   87.8351  130.6694  123.3677 C   0  0  0  0  0
   88.3747  129.9763  122.1350 C   0  0  0  0  0
   88.0751  130.8180  120.9099 C   0  0  0  0  0
   88.6337  130.1561  119.6596 C   0  0  0  0  0
   91.0339  129.8636  120.3273 C   0  0  0  0  0
   92.2812  130.2939  119.8754 C   0  0  0  0  0
   93.5802  129.8990  120.4568 C   0  0  0  0  0
   94.8052  130.7091  120.2639 C   0  0  0  0  0
   94.7186  132.0994  120.4135 C   0  0  0  0  0
   95.8455  132.9075  120.2731 C   0  0  0  0  0
   97.0887  132.3447  119.9857 C   0  0  0  0  0
   97.2078  130.9519  119.8366 C   0  0  0  0  0
   98.4492  130.3697  119.5436 C   0  0  0  0  0
   98.5654  128.9875  119.3865 C   0  0  0  0  0
   97.4410  128.1721  119.5187 C   0  0  0  0  0
   96.1980  128.7366  119.8108 C   0  0  0  0  0
   96.0617  130.1245  119.9793 C   0  0  0  0  0
   92.0399  131.0846  118.7633 C   0  0  0  0  0
   92.9080  131.7225  117.8764 C   0  0  0  0  0
   92.3420  132.4342  116.8042 C   0  0  0  0  0
   90.9418  132.4828  116.6357 C   0  0  0  0  0
   90.0906  131.8163  117.5344 C   0  0  0  0  0
   90.6807  131.1219  118.5917 C   0  0  0  0  0
   90.0672  130.3943  119.5410 N   0  0  0  0  0
   93.6358  128.8573  121.1647 O   0  0  0  0  0
   98.5908  133.5204  119.8052 Br  0  0  0  0  0
  1  2  1  0  0  0
  2  3  1  0  0  0
  3  4  1  0  0  0
  4  5  1  0  0  0
  5 25  1  0  0  0
  7  8  1  0  0  0
  7 19  1  0  0  0
  8  9  1  0  0  0
 10 11  1  0  0  0
 12 27  1  0  0  0
 12 13  1  0  0  0
 14 15  1  0  0  0
 16 17  1  0  0  0
 18  9  1  0  0  0
 18 13  1  0  0  0
 20 21  1  0  0  0
 22 23  1  0  0  0
 24 25  1  0  0  0
 24 19  1  0  0  0
 25  6  1  0  0  0
  6  7  2  0  0  0
  8 26  2  0  0  0
  9 10  2  0  0  0
 11 12  2  0  0  0
 13 14  2  0  0  0
 15 16  2  0  0  0
 17 18  2  0  0  0
 19 20  2  0  0  0
 21 22  2  0  0  0
 23 24  2  0  0  0
M  END
> <rmsd>
0.349488735

$$$$
CHEMBL1224614_6N4B


 34 37  0  0  0  0  0  0  0  0999 V2000
   94.7965  128.7533  118.0431 C   0  0  0  0  0
   97.2449  128.9773  117.7722 C   0  0  0  0  0
   98.2251  128.2536  117.0829 C   0  0  0  0  0
   99.5236  128.1538  117.5840 C   0  0  0  0  0
   99.8564  128.7774  118.7858 C   0  0  0  0  0
   98.8992  129.5286  119.4689 C   0  0  0  0  0
   97.5930  129.6575  118.9698 C   0  0  0  0  0
   96.6655  130.5763  119.6645 C   0  0  0  0  0
   96.6900  130.6898  121.0617 C   0  0  0  0  0
   95.8225  131.5808  121.6951 C   0  0  0  0  0
   94.9452  132.3550  120.9356 C   0  0  0  0  0
   94.9563  132.2314  119.5451 C   0  0  0  0  0
   94.0102  133.0356  118.7202 C   0  0  0  0  0
   92.9678  132.1528  118.1167 C   0  0  0  0  0
   92.9557  131.6776  116.8072 C   0  0  0  0  0
   91.5415  130.1471  115.4348 C   0  0  0  0  0
   91.2555  130.7926  117.8373 C   0  0  0  0  0
   90.1238  130.0468  118.1654 C   0  0  0  0  0
   89.6530  130.1291  119.4879 C   0  0  0  0  0
   90.3094  130.9395  120.4482 C   0  0  0  0  0
   88.6967  130.3815  122.3667 C   0  0  0  0  0
   88.4068  130.5421  123.8393 C   0  0  0  0  0
   87.3051  129.5978  124.3038 C   0  0  0  0  0
   89.6566  130.2167  124.6365 C   0  0  0  0  0
   88.0063  131.9828  124.1442 C   0  0  0  0  0
   91.4513  131.6740  120.0783 C   0  0  0  0  0
   91.8909  131.5776  118.7595 C   0  0  0  0  0
   95.9500  128.9742  117.2427 O   0  0  0  0  0
   87.9046  129.7318  121.6296 O   0  0  0  0  0
   86.8483  132.3434  123.4491 O   0  0  0  0  0
  100.4573  127.4396  116.9102 F   0  0  0  0  0
   91.8935  130.8530  116.6547 N   0  0  0  0  0
   89.8539  131.0216  121.8053 N   0  0  0  0  0
   95.8113  131.3583  118.9463 N   0  0  0  0  0
  1 28  1  0  0  0
  2 28  1  0  0  0
  3  4  1  0  0  0
  4 31  1  0  0  0
  5  6  1  0  0  0
  7  8  1  0  0  0
  7  2  1  0  0  0
  8 34  1  0  0  0
  9 10  1  0  0  0
 11 12  1  0  0  0
 13 12  1  0  0  0
 13 14  1  0  0  0
 15 32  1  0  0  0
 16 32  1  0  0  0
 18 19  1  0  0  0
 20 33  1  0  0  0
 20 26  1  0  0  0
 22 21  1  0  0  0
 22 23  1  0  0  0
 22 24  1  0  0  0
 22 25  1  0  0  0
 25 30  1  0  0  0
 27 14  1  0  0  0
 27 17  1  0  0  0
 32 17  1  0  0  0
 33 21  1  0  0  0
  2  3  2  0  0  0
  4  5  2  0  0  0
  6  7  2  0  0  0
  8  9  2  0  0  0
 10 11  2  0  0  0
 12 34  2  0  0  0
 14 15  2  0  0  0
 17 18  2  0  0  0
 19 20  2  0  0  0
 21 29  2  0  0  0
 26 27  2  0  0  0
M  END
> <rmsd>
0.565136611

$$$$
CHEMBL2206850_6N4B


 27 30  0  0  0  0  0  0  0  0999 V2000
   90.4215  131.6818  115.8134 C   0  0  0  0  0
   89.2424  131.2361  116.4486 C   0  0  0  0  0
   89.2617  130.8468  117.7999 C   0  0  0  0  0
   90.4809  130.9167  118.4753 C   0  0  0  0  0
   91.6247  131.3488  117.8583 C   0  0  0  0  0
   91.6353  131.7440  116.5208 C   0  0  0  0  0
   92.6314  131.3086  118.8063 C   0  0  0  0  0
   92.0429  130.8499  119.9860 C   0  0  0  0  0
   89.7700  130.1584  120.7554 C   0  0  0  0  0
   89.1570  131.3573  121.4604 C   0  0  0  0  0
   88.1658  130.9008  122.5153 C   0  0  0  0  0
   88.8972  130.3679  123.7330 C   0  0  0  0  0
   87.8899  129.9135  124.7676 C   0  0  0  0  0
   94.0411  131.7092  118.6349 C   0  0  0  0  0
   94.9955  131.5953  119.7451 C   0  0  0  0  0
   95.3718  130.2900  120.0869 C   0  0  0  0  0
   96.3611  130.0487  121.0339 C   0  0  0  0  0
   97.0071  131.1157  121.6457 C   0  0  0  0  0
   96.6540  132.4282  121.3327 C   0  0  0  0  0
   95.6151  132.7065  120.3938 C   0  0  0  0  0
   95.2576  134.0754  120.1885 C   0  0  0  0  0
   95.9656  135.0849  120.8483 C   0  0  0  0  0
   97.0046  134.7861  121.7232 C   0  0  0  0  0
   97.3395  133.4610  121.9719 C   0  0  0  0  0
   90.7311  130.6066  119.7596 N   0  0  0  0  0
   94.4507  132.1159  117.5143 O   0  0  0  0  0
   93.6219  134.8438  119.0699 I   0  0  0  0  0
  2  3  1  0  0  0
  4  5  1  0  0  0
  5  7  1  0  0  0
  6  1  1  0  0  0
  7 14  1  0  0  0
  8 25  1  0  0  0
  9 25  1  0  0  0
  9 10  1  0  0  0
 10 11  1  0  0  0
 11 12  1  0  0  0
 12 13  1  0  0  0
 14 15  1  0  0  0
 16 17  1  0  0  0
 18 19  1  0  0  0
 20 21  1  0  0  0
 20 15  1  0  0  0
 21 27  1  0  0  0
 22 23  1  0  0  0
 24 19  1  0  0  0
 25  4  1  0  0  0
  1  2  2  0  0  0
  3  4  2  0  0  0
  5  6  2  0  0  0
  7  8  2  0  0  0
 14 26  2  0  0  0
 15 16  2  0  0  0
 17 18  2  0  0  0
 19 20  2  0  0  0
 21 22  2  0  0  0
 23 24  2  0  0  0
M  END
> <rmsd>
0.555218518

$$$$
CHEMBL1760660_5U09


 30 33  0  0  0  0  0  0  0  0999 V2000
   95.9274  130.2555  117.6942 C   0  0  0  0  0
   95.8048  130.8601  119.0519 C   0  0  0  0  0
   96.7602  131.7980  119.4569 C   0  0  0  0  0
   96.6853  132.3785  120.7257 C   0  0  0  0  0
   95.6540  132.0213  121.5971 C   0  0  0  0  0
   94.6964  131.0856  121.1993 C   0  0  0  0  0
   94.7617  130.5014  119.9278 C   0  0  0  0  0
   93.7151  129.5071  119.5264 C   0  0  0  0  0
   91.4112  130.2286  120.2927 C   0  0  0  0  0
   91.4238  129.5874  121.6216 C   0  0  0  0  0
   90.2805  129.1861  123.8376 C   0  0  0  0  0
   89.0052  129.5657  124.5931 C   0  0  0  0  0
   88.9704  128.9238  125.9801 C   0  0  0  0  0
   88.7376  131.0598  124.6174 C   0  0  0  0  0
   87.4647  130.8314  123.8157 C   0  0  0  0  0
   87.7356  129.3342  123.7937 C   0  0  0  0  0
   90.3402  130.9904  119.8150 C   0  0  0  0  0
   90.7500  131.3849  118.5572 C   0  0  0  0  0
   90.0884  132.1704  117.6164 C   0  0  0  0  0
   90.7466  132.4289  116.4003 C   0  0  0  0  0
   90.1051  133.2332  115.3995 C   0  0  0  0  0
   92.0343  131.9036  116.1585 C   0  0  0  0  0
   92.6781  131.1141  117.1272 C   0  0  0  0  0
   91.9988  130.8743  118.3225 C   0  0  0  0  0
   95.5818  132.5827  122.8275 F   0  0  0  0  0
   92.4163  130.1596  119.3795 N   0  0  0  0  0
   90.3259  129.7916  122.5124 N   0  0  0  0  0
   89.5879  133.8817  114.5924 N   0  0  0  0  0
   92.3912  128.8593  121.9723 O   0  0  0  0  0
   87.8082  129.2656  126.6776 O   0  0  0  0  0
  1  2  1  0  0  0
  3  4  1  0  0  0
  5 25  1  0  0  0
  5  6  1  0  0  0
  7  2  1  0  0  0
  8  7  1  0  0  0
  8 26  1  0  0  0
  9 10  1  0  0  0
 10 27  1  0  0  0
 11 27  1  0  0  0
 11 12  1  0  0  0
 12 13  1  0  0  0
 12 14  1  0  0  0
 13 30  1  0  0  0
 14 15  1  0  0  0
 15 16  1  0  0  0
 16 12  1  0  0  0
 17 18  1  0  0  0
 19 20  1  0  0  0
 20 21  1  0  0  0
 22 23  1  0  0  0
 24 26  1  0  0  0
 24 18  1  0  0  0
 26  9  1  0  0  0
  2  3  2  0  0  0
  4  5  2  0  0  0
  6  7  2  0  0  0
  9 17  2  0  0  0
 10 29  2  0  0  0
 18 19  2  0  0  0
 20 22  2  0  0  0
 23 24  2  0  0  0
 21 28  3  0  0  0
M  END
> <rmsd>
0.116705678

$$$$
CHEMBL1760648_5U09


 29 31  0  0  0  0  0  0  0  0999 V2000
   87.6360  131.1570  124.0798 C   0  0  0  0  0
   88.7748  130.2396  124.4994 C   0  0  0  0  0
   88.6330  128.8956  123.8007 C   0  0  0  0  0
   88.7417  130.0382  126.0104 C   0  0  0  0  0
   90.1150  130.8753  124.1386 C   0  0  0  0  0
   91.2579  130.5082  121.9166 C   0  0  0  0  0
   91.3126  130.7710  120.4658 C   0  0  0  0  0
   90.3499  131.5195  119.7813 C   0  0  0  0  0
   90.7876  131.5032  118.4719 C   0  0  0  0  0
   90.2259  132.0944  117.3430 C   0  0  0  0  0
   90.8921  131.9255  116.1154 C   0  0  0  0  0
   90.3518  132.5160  114.9240 C   0  0  0  0  0
   92.0893  131.1805  116.0480 C   0  0  0  0  0
   92.6335  130.5952  117.2047 C   0  0  0  0  0
   91.9481  130.7795  118.4066 C   0  0  0  0  0
   93.4843  129.5667  119.9630 C   0  0  0  0  0
   94.6362  130.4929  120.1644 C   0  0  0  0  0
   95.5078  130.7641  119.1044 C   0  0  0  0  0
   96.5702  131.6552  119.2819 C   0  0  0  0  0
   96.7594  132.2807  120.5180 C   0  0  0  0  0
   95.8858  132.0147  121.5765 C   0  0  0  0  0
   94.8233  131.1238  121.3991 C   0  0  0  0  0
   87.5378  129.4568  126.4187 O   0  0  0  0  0
   92.1050  129.7509  122.4622 O   0  0  0  0  0
   90.2274  131.1086  122.7039 N   0  0  0  0  0
   89.9160  132.9921  113.9633 N   0  0  0  0  0
   92.2809  130.3213  119.6238 N   0  0  0  0  0
   97.6596  131.9919  117.9546 Cl  0  0  0  0  0
   96.1181  132.8009  123.1224 Cl  0  0  0  0  0
  1  2  1  0  0  0
  2  3  1  0  0  0
  2  4  1  0  0  0
  2  5  1  0  0  0
  4 23  1  0  0  0
  5 25  1  0  0  0
  6  7  1  0  0  0
  8  9  1  0  0  0
 10 11  1  0  0  0
 11 12  1  0  0  0
 13 14  1  0  0  0
 15 27  1  0  0  0
 15  9  1  0  0  0
 16 27  1  0  0  0
 16 17  1  0  0  0
 18 19  1  0  0  0
 19 28  1  0  0  0
 20 21  1  0  0  0
 21 29  1  0  0  0
 22 17  1  0  0  0
 25  6  1  0  0  0
 27  7  1  0  0  0
  6 24  2  0  0  0
  7  8  2  0  0  0
  9 10  2  0  0  0
 11 13  2  0  0  0
 14 15  2  0  0  0
 17 18  2  0  0  0
 19 20  2  0  0  0
 21 22  2  0  0  0
 12 26  3  0  0  0
M  END
> <rmsd>
0.170499384

$$$$
CHEMBL1760649_5U09


 30 32  0  0  0  0  0  0  0  0999 V2000
   95.1953  128.3628  118.0249 C   0  0  0  0  0
   95.7618  130.4675  119.2596 C   0  0  0  0  0
   96.7812  131.4087  119.4491 C   0  0  0  0  0
   96.7293  132.3228  120.5026 C   0  0  0  0  0
   95.6497  132.3080  121.3841 C   0  0  0  0  0
   94.6150  131.3911  121.2018 C   0  0  0  0  0
   94.6513  130.4713  120.1457 C   0  0  0  0  0
   93.4703  129.5677  119.9727 C   0  0  0  0  0
   91.2738  130.7704  120.3498 C   0  0  0  0  0
   91.1356  130.4995  121.7934 C   0  0  0  0  0
   89.8245  130.8004  123.9332 C   0  0  0  0  0
   88.6286  129.8771  124.1775 C   0  0  0  0  0
   88.4339  129.7668  125.6748 C   0  0  0  0  0
   87.3588  130.4700  123.5845 C   0  0  0  0  0
   88.8774  128.4684  123.6373 C   0  0  0  0  0
   90.3501  131.5197  119.6145 C   0  0  0  0  0
   90.8666  131.5170  118.3342 C   0  0  0  0  0
   90.3711  132.1161  117.1786 C   0  0  0  0  0
   91.1116  131.9625  115.9925 C   0  0  0  0  0
   90.6412  132.5612  114.7758 C   0  0  0  0  0
   92.3152  131.2248  115.9913 C   0  0  0  0  0
   92.7912  130.6318  117.1735 C   0  0  0  0  0
   92.0330  130.7997  118.3332 C   0  0  0  0  0
   95.9151  129.5766  118.1859 O   0  0  0  0  0
   91.9733  129.7715  122.3912 O   0  0  0  0  0
   88.8484  128.4372  122.2405 O   0  0  0  0  0
   95.5822  133.4507  122.7076 Cl  0  0  0  0  0
   92.2937  130.3321  119.5646 N   0  0  0  0  0
   90.0366  131.0612  122.5147 N   0  0  0  0  0
   90.2619  133.0441  113.7949 N   0  0  0  0  0
  1 24  1  0  0  0
  2 24  1  0  0  0
  3  4  1  0  0  0
  5 27  1  0  0  0
  5  6  1  0  0  0
  7  2  1  0  0  0
  8  7  1  0  0  0
  8 28  1  0  0  0
  9 10  1  0  0  0
 10 29  1  0  0  0
 11 29  1  0  0  0
 11 12  1  0  0  0
 12 13  1  0  0  0
 12 14  1  0  0  0
 12 15  1  0  0  0
 15 26  1  0  0  0
 16 17  1  0  0  0
 18 19  1  0  0  0
 19 20  1  0  0  0
 21 22  1  0  0  0
 23 28  1  0  0  0
 23 17  1  0  0  0
 28  9  1  0  0  0
  2  3  2  0  0  0
  4  5  2  0  0  0
  6  7  2  0  0  0
  9 16  2  0  0  0
 10 25  2  0  0  0
 17 18  2  0  0  0
 19 21  2  0  0  0
 22 23  2  0  0  0
 20 30  3  0  0  0
M  END
> <rmsd>
0.223780975

$$$$
CHEMBL1760647_5U09


 35 37  0  0  0  0  0  0  0  0999 V2000
   96.7070  127.2172  122.5732 C   0  0  0  0  0
   95.9189  128.4702  122.8922 C   0  0  0  0  0
   95.4011  130.1480  121.1444 C   0  0  0  0  0
   96.3264  131.0638  121.6722 C   0  0  0  0  0
   96.5190  132.3078  121.0665 C   0  0  0  0  0
   95.7953  132.6544  119.9234 C   0  0  0  0  0
   95.3207  134.3745  118.1782 C   0  0  0  0  0
   94.8727  131.7420  119.3942 C   0  0  0  0  0
   94.6604  130.4994  120.0030 C   0  0  0  0  0
   93.6748  129.5400  119.4054 C   0  0  0  0  0
   91.3624  130.2803  120.1439 C   0  0  0  0  0
   91.3596  129.6688  121.4860 C   0  0  0  0  0
   90.2358  129.3829  123.7288 C   0  0  0  0  0
   89.0013  129.8587  124.4894 C   0  0  0  0  0
   89.0328  131.3729  124.6331 C   0  0  0  0  0
   87.7415  129.4411  123.7459 C   0  0  0  0  0
   89.0211  129.2114  125.8699 C   0  0  0  0  0
   90.3051  131.0488  119.6465 C   0  0  0  0  0
   90.7233  131.4077  118.3809 C   0  0  0  0  0
   90.0816  132.1911  117.4250 C   0  0  0  0  0
   90.7504  132.4185  116.2085 C   0  0  0  0  0
   90.1295  133.2202  115.1926 C   0  0  0  0  0
   92.0295  131.8663  115.9814 C   0  0  0  0  0
   92.6537  131.0801  116.9655 C   0  0  0  0  0
   91.9630  130.8702  118.1606 C   0  0  0  0  0
   95.2112  128.8929  121.7346 O   0  0  0  0  0
   96.0100  133.9081  119.3367 O   0  0  0  0  0
   92.2823  128.8844  121.8333 O   0  0  0  0  0
   87.9145  129.6022  126.6295 O   0  0  0  0  0
   95.5759  133.5390  117.1054 F   0  0  0  0  0
   93.9591  134.4170  118.4204 F   0  0  0  0  0
   95.7625  135.6468  117.8716 F   0  0  0  0  0
   92.3683  130.1739  119.2349 N   0  0  0  0  0
   90.2930  129.9592  122.3911 N   0  0  0  0  0
   89.6290  133.8666  114.3735 N   0  0  0  0  0
  1  2  1  0  0  0
  2 26  1  0  0  0
  3 26  1  0  0  0
  4  5  1  0  0  0
  6 27  1  0  0  0
  6  8  1  0  0  0
  7 27  1  0  0  0
  7 30  1  0  0  0
  7 31  1  0  0  0
  7 32  1  0  0  0
  9  3  1  0  0  0
 10  9  1  0  0  0
 10 33  1  0  0  0
 11 12  1  0  0  0
 12 34  1  0  0  0
 13 34  1  0  0  0
 13 14  1  0  0  0
 14 15  1  0  0  0
 14 16  1  0  0  0
 14 17  1  0  0  0
 17 29  1  0  0  0
 18 19  1  0  0  0
 20 21  1  0  0  0
 21 22  1  0  0  0
 23 24  1  0  0  0
 25 33  1  0  0  0
 25 19  1  0  0  0
 33 11  1  0  0  0
  3  4  2  0  0  0
  5  6  2  0  0  0
  8  9  2  0  0  0
 11 18  2  0  0  0
 12 28  2  0  0  0
 19 20  2  0  0  0
 21 23  2  0  0  0
 24 25  2  0  0  0
 22 35  3  0  0  0
M  END
> <rmsd>
0.311880797

$$$$
CHEMBL3900016_5U09


 38 42  0  0  0  0  0  0  0  0999 V2000
   95.5951  132.5031  120.9713 C   0  0  0  0  0
   94.7527  131.4244  120.6924 C   0  0  0  0  0
   95.2360  130.3223  119.9770 C   0  0  0  0  0
   96.5655  130.3032  119.5408 C   0  0  0  0  0
   97.4237  131.3734  119.8333 C   0  0  0  0  0
   96.9253  132.4797  120.5392 C   0  0  0  0  0
   98.8324  131.3744  119.3133 C   0  0  0  0  0
   94.3351  129.1766  119.6622 C   0  0  0  0  0
   92.7305  130.1171  117.8665 C   0  0  0  0  0
   92.6246  130.3743  116.4971 C   0  0  0  0  0
   91.5959  131.1807  116.0091 C   0  0  0  0  0
   90.7421  131.4888  118.2006 C   0  0  0  0  0
   91.7617  130.6661  118.7408 C   0  0  0  0  0
   91.7653  130.4148  120.1191 C   0  0  0  0  0
   90.8045  130.9822  120.9586 C   0  0  0  0  0
   89.8209  131.8208  120.4160 C   0  0  0  0  0
   89.7845  132.0644  119.0407 C   0  0  0  0  0
   90.9129  130.7400  122.4361 C   0  0  0  0  0
   91.6931  131.8033  123.1532 C   0  0  0  0  0
   92.9029  131.4591  123.7661 C   0  0  0  0  0
   93.6626  132.4334  124.4198 C   0  0  0  0  0
   93.2162  133.7578  124.4615 C   0  0  0  0  0
   92.0100  134.1086  123.8484 C   0  0  0  0  0
   91.2496  133.1342  123.1949 C   0  0  0  0  0
   89.6239  130.3591  123.1086 C   0  0  0  0  0
   89.4449  129.0359  123.5261 C   0  0  0  0  0
   88.2553  128.6486  124.1507 C   0  0  0  0  0
   87.2382  129.5844  124.3590 C   0  0  0  0  0
   87.4086  130.9072  123.9404 C   0  0  0  0  0
   88.5983  131.2944  123.3172 C   0  0  0  0  0
   98.8454  131.8939  118.0323 F   0  0  0  0  0
   99.6470  132.1472  120.1217 F   0  0  0  0  0
   99.3358  130.0856  119.2827 F   0  0  0  0  0
   93.8240  129.2912  118.3016 N   0  0  0  0  0
   90.6882  131.7207  116.8631 N   0  0  0  0  0
   91.5106  131.4104  114.7746 O   0  0  0  0  0
   94.1732  134.9794  125.2684 Cl  0  0  0  0  0
   85.7472  129.0981  125.1380 Cl  0  0  0  0  0
  2  3  1  0  0  0
  4  5  1  0  0  0
  6  1  1  0  0  0
  7  5  1  0  0  0
  7 31  1  0  0  0
  7 32  1  0  0  0
  7 33  1  0  0  0
  8  3  1  0  0  0
  8 34  1  0  0  0
 10 11  1  0  0  0
 11 35  1  0  0  0
 13 14  1  0  0  0
 13  9  1  0  0  0
 15 16  1  0  0  0
 17 12  1  0  0  0
 18 15  1  0  0  0
 18 19  1  0  0  0
 18 25  1  0  0  0
 20 21  1  0  0  0
 22 23  1  0  0  0
 22 37  1  0  0  0
 24 19  1  0  0  0
 26 27  1  0  0  0
 28 29  1  0  0  0
 28 38  1  0  0  0
 30 25  1  0  0  0
 34  9  1  0  0  0
 35 12  1  0  0  0
  1  2  2  0  0  0
  3  4  2  0  0  0
  5  6  2  0  0  0
  9 10  2  0  0  0
 11 36  2  0  0  0
 12 13  2  0  0  0
 14 15  2  0  0  0
 16 17  2  0  0  0
 19 20  2  0  0  0
 21 22  2  0  0  0
 23 24  2  0  0  0
 25 26  2  0  0  0
 27 28  2  0  0  0
 29 30  2  0  0  0
M  END
> <rmsd>
0.629947782

$$$$
CHEMBL427236_5U09


 32 34  0  0  0  0  0  0  0  0999 V2000
   91.0892  131.1562  125.4026 C   0  0  0  0  0
   91.1772  130.1087  124.3046 C   0  0  0  0  0
   93.4054  129.2134  123.5136 C   0  0  0  0  0
   94.6002  129.3714  122.6159 C   0  0  0  0  0
   94.6639  128.1805  121.6691 C   0  0  0  0  0
   95.8577  129.4119  123.4709 C   0  0  0  0  0
   95.3527  131.0648  120.8925 C   0  0  0  0  0
   96.5188  130.3694  120.5309 C   0  0  0  0  0
   97.3646  130.8788  119.5405 C   0  0  0  0  0
   97.0538  132.0877  118.9098 C   0  0  0  0  0
   95.8993  132.7862  119.2690 C   0  0  0  0  0
   95.0532  132.2760  120.2578 C   0  0  0  0  0
   90.0245  130.2637  123.3009 C   0  0  0  0  0
   90.1357  129.2530  122.1601 C   0  0  0  0  0
   90.5963  129.9184  120.9054 C   0  0  0  0  0
   91.7836  129.5048  120.2928 C   0  0  0  0  0
   92.2131  130.1149  119.1099 C   0  0  0  0  0
   91.4530  131.1359  118.5346 C   0  0  0  0  0
   90.2608  131.5478  119.1386 C   0  0  0  0  0
   89.8328  130.9387  120.3223 C   0  0  0  0  0
   88.6692  130.1575  123.9347 C   0  0  0  0  0
   88.2822  129.0169  124.6563 C   0  0  0  0  0
   86.9928  128.9288  125.1886 C   0  0  0  0  0
   86.0853  129.9747  124.9997 C   0  0  0  0  0
   86.4705  131.1144  124.2888 C   0  0  0  0  0
   87.7601  131.2055  123.7597 C   0  0  0  0  0
   92.4479  130.2691  123.6150 N   0  0  0  0  0
   93.2432  128.1497  124.1726 O   0  0  0  0  0
   94.4680  130.5892  121.8723 O   0  0  0  0  0
   98.0923  132.7160  117.6506 Cl  0  0  0  0  0
   92.0040  131.9023  117.0621 Cl  0  0  0  0  0
   84.4673  129.8564  125.6549 Cl  0  0  0  0  0
  2  1  1  0  0  0
  2 27  1  0  0  0
  2 13  1  0  0  0
  4  3  1  0  0  0
  4  5  1  0  0  0
  4  6  1  0  0  0
  4 29  1  0  0  0
  7 29  1  0  0  0
  8  9  1  0  0  0
 10 30  1  0  0  0
 10 11  1  0  0  0
 12  7  1  0  0  0
 13 14  1  0  0  0
 13 21  1  0  0  0
 14 15  1  0  0  0
 16 17  1  0  0  0
 18 31  1  0  0  0
 18 19  1  0  0  0
 20 15  1  0  0  0
 22 23  1  0  0  0
 24 32  1  0  0  0
 24 25  1  0  0  0
 26 21  1  0  0  0
 27  3  1  0  0  0
  3 28  2  0  0  0
  7  8  2  0  0  0
  9 10  2  0  0  0
 11 12  2  0  0  0
 15 16  2  0  0  0
 17 18  2  0  0  0
 19 20  2  0  0  0
 21 22  2  0  0  0
 23 24  2  0  0  0
 25 26  2  0  0  0
M  END
> <rmsd>
0.705448627

$$$$
CHEMBL561013_6N4B


 26 29  0  0  0  0  0  0  0  0999 V2000
   88.1492  129.8323  124.5920 C   0  0  0  0  0
   87.8407  130.6704  123.3696 C   0  0  0  0  0
   88.3776  129.9777  122.1354 C   0  0  0  0  0
   88.0769  130.8207  120.9115 C   0  0  0  0  0
   88.6325  130.1590  119.6597 C   0  0  0  0  0
   91.0335  129.8634  120.3232 C   0  0  0  0  0
   92.2807  130.2924  119.8694 C   0  0  0  0  0
   93.5801  129.8949  120.4480 C   0  0  0  0  0
   94.8045  130.7075  120.2614 C   0  0  0  0  0
   94.7156  132.1004  120.4052 C   0  0  0  0  0
   95.8446  132.9100  120.2712 C   0  0  0  0  0
   97.0870  132.3391  119.9965 C   0  0  0  0  0
   97.2059  130.9558  119.8553 C   0  0  0  0  0
   98.4557  130.3958  119.5762 C   0  0  0  0  0
   98.5867  129.0136  119.4234 C   0  0  0  0  0
   97.4684  128.1859  119.5469 C   0  0  0  0  0
   96.2153  128.7374  119.8262 C   0  0  0  0  0
   96.0650  130.1243  119.9898 C   0  0  0  0  0
   92.0384  131.0841  118.7581 C   0  0  0  0  0
   92.9057  131.7207  117.8697 C   0  0  0  0  0
   92.3388  132.4334  116.7987 C   0  0  0  0  0
   90.9385  132.4840  116.6327 C   0  0  0  0  0
   90.0878  131.8186  117.5329 C   0  0  0  0  0
   90.6790  131.1231  118.5890 C   0  0  0  0  0
   90.0662  130.3958  119.5389 N   0  0  0  0  0
   93.6364  128.8481  121.1483 O   0  0  0  0  0
  1  2  1  0  0  0
  2  3  1  0  0  0
  3  4  1  0  0  0
  4  5  1  0  0  0
  5 25  1  0  0  0
  7  8  1  0  0  0
  7 19  1  0  0  0
  8  9  1  0  0  0
 10 11  1  0  0  0
 12 13  1  0  0  0
 14 15  1  0  0  0
 16 17  1  0  0  0
 18  9  1  0  0  0
 18 13  1  0  0  0
 20 21  1  0  0  0
 22 23  1  0  0  0
 24 25  1  0  0  0
 24 19  1  0  0  0
 25  6  1  0  0  0
  6  7  2  0  0  0
  8 26  2  0  0  0
  9 10  2  0  0  0
 11 12  2  0  0  0
 13 14  2  0  0  0
 15 16  2  0  0  0
 17 18  2  0  0  0
 19 20  2  0  0  0
 21 22  2  0  0  0
 23 24  2  0  0  0
M  END
> <rmsd>
0.347297698

$$$$
CHEMBL1760670_5U09


 28 30  0  0  0  0  0  0  0  0999 V2000
   96.7008  130.2766  117.0337 C   0  0  0  0  0
   95.6429  130.7278  119.2273 C   0  0  0  0  0
   96.6401  131.6529  119.5803 C   0  0  0  0  0
   96.5928  132.3105  120.8118 C   0  0  0  0  0
   95.5493  132.0496  121.7019 C   0  0  0  0  0
   94.5530  131.1333  121.3601 C   0  0  0  0  0
   94.5939  130.4707  120.1276 C   0  0  0  0  0
   93.5037  129.5084  119.7758 C   0  0  0  0  0
   91.2338  130.4917  120.3212 C   0  0  0  0  0
   91.1383  130.0328  121.7204 C   0  0  0  0  0
   89.8837  130.0254  123.9090 C   0  0  0  0  0
   88.6157  130.6151  124.4981 C   0  0  0  0  0
   87.3955  129.9317  123.9113 C   0  0  0  0  0
   90.2497  131.2624  119.6941 C   0  0  0  0  0
   90.7421  131.4537  118.4185 C   0  0  0  0  0
   90.1870  132.1552  117.3511 C   0  0  0  0  0
   90.9140  132.1988  116.1475 C   0  0  0  0  0
   90.3829  132.9095  115.0192 C   0  0  0  0  0
   92.1629  131.5493  116.0426 C   0  0  0  0  0
   92.6988  130.8489  117.1374 C   0  0  0  0  0
   91.9531  130.8228  118.3169 C   0  0  0  0  0
   95.6799  130.0591  117.9980 O   0  0  0  0  0
   92.0198  129.2740  122.2064 O   0  0  0  0  0
   86.2421  130.4892  124.4603 O   0  0  0  0  0
   95.4805  132.9463  123.3810 Br  0  0  0  0  0
   92.2666  130.2254  119.4777 N   0  0  0  0  0
   90.0324  130.4473  122.5249 N   0  0  0  0  0
   89.9547  133.4825  114.1095 N   0  0  0  0  0
  1 22  1  0  0  0
  2 22  1  0  0  0
  3  4  1  0  0  0
  5 25  1  0  0  0
  5  6  1  0  0  0
  7  2  1  0  0  0
  8  7  1  0  0  0
  8 26  1  0  0  0
  9 10  1  0  0  0
 10 27  1  0  0  0
 11 27  1  0  0  0
 11 12  1  0  0  0
 12 13  1  0  0  0
 13 24  1  0  0  0
 14 15  1  0  0  0
 16 17  1  0  0  0
 17 18  1  0  0  0
 19 20  1  0  0  0
 21 26  1  0  0  0
 21 15  1  0  0  0
 26  9  1  0  0  0
  2  3  2  0  0  0
  4  5  2  0  0  0
  6  7  2  0  0  0
  9 14  2  0  0  0
 10 23  2  0  0  0
 15 16  2  0  0  0
 17 19  2  0  0  0
 20 21  2  0  0  0
 18 28  3  0  0  0
M  END
> <rmsd>
0.277324557

$$$$
CHEMBL2022361_6N4B


 28 31  0  0  0  0  0  0  0  0999 V2000
   88.5224  131.0140  121.7632 O   0  0  0  0  0
   92.2729  129.3563  121.3909 O   0  0  0  0  0
   89.6651  130.4828  121.7545 C   0  0  0  0  0
   89.4241  129.5580  124.1698 C   0  0  0  0  0
   88.1796  128.6713  124.0340 C   0  0  0  0  0
   86.9301  129.4683  123.6680 C   0  0  0  0  0
   86.7273  130.6190  124.6454 C   0  0  0  0  0
   87.9158  131.5690  124.5707 C   0  0  0  0  0
   89.2009  130.8481  124.9696 C   0  0  0  0  0
   90.5151  130.6093  120.5423 C   0  0  0  0  0
   90.0174  131.3363  119.4582 C   0  0  0  0  0
   90.7669  131.4858  118.3002 C   0  0  0  0  0
   90.2494  132.2109  117.2234 C   0  0  0  0  0
   90.9992  132.3582  116.0544 C   0  0  0  0  0
   92.2669  131.7799  115.9594 C   0  0  0  0  0
   92.7880  131.0549  117.0343 C   0  0  0  0  0
   92.0480  130.8997  118.2212 C   0  0  0  0  0
   93.8866  129.6021  119.2200 C   0  0  0  0  0
   94.9072  130.5494  119.7612 C   0  0  0  0  0
   95.5185  131.4814  118.9149 C   0  0  0  0  0
   96.4587  132.3812  119.4258 C   0  0  0  0  0
   96.7871  132.3527  120.7846 C   0  0  0  0  0
   96.1741  131.4255  121.6328 C   0  0  0  0  0
   95.2339  130.5256  121.1218 C   0  0  0  0  0
   91.8016  130.0303  120.4330 C   0  0  0  0  0
   90.1331  129.7682  122.9072 N   0  0  0  0  0
   92.5440  130.1920  119.2883 N   0  0  0  0  0
   97.6978  133.2244  121.2796 F   0  0  0  0  0
  3 26  1  0  0  0
  3 10  1  0  0  0
  4 26  1  0  0  0
  4  5  1  0  0  0
  5  6  1  0  0  0
  6  7  1  0  0  0
  7  8  1  0  0  0
  8  9  1  0  0  0
  9  4  1  0  0  0
 11 12  1  0  0  0
 13 14  1  0  0  0
 15 16  1  0  0  0
 17 27  1  0  0  0
 17 12  1  0  0  0
 18 27  1  0  0  0
 18 19  1  0  0  0
 20 21  1  0  0  0
 22 28  1  0  0  0
 22 23  1  0  0  0
 24 19  1  0  0  0
 25 10  1  0  0  0
 27 25  1  0  0  0
  3  1  2  0  0  0
 10 11  2  0  0  0
 12 13  2  0  0  0
 14 15  2  0  0  0
 16 17  2  0  0  0
 19 20  2  0  0  0
 21 22  2  0  0  0
 23 24  2  0  0  0
 25  2  2  0  0  0
M  END
> <rmsd>
0.19906655

$$$$
CHEMBL3354943_5TGZ


 29 33  0  0  0  0  0  0  0  0999 V2000
   88.7886  130.8080  124.8726 C   0  0  0  0  0
   88.2868  130.6259  123.4513 C   0  0  0  0  0
   87.5846  129.2725  123.3905 C   0  0  0  0  0
   89.3708  130.4518  121.1316 C   0  0  0  0  0
   90.6053  130.4756  120.3399 C   0  0  0  0  0
   92.0057  130.6747  118.7001 C   0  0  0  0  0
   90.7089  130.4471  118.9627 C   0  0  0  0  0
   89.8270  130.9821  117.9071 C   0  0  0  0  0
   90.8195  131.4733  116.8241 C   0  0  0  0  0
   92.2473  131.3167  117.3843 C   0  0  0  0  0
   91.5959  132.6880  117.3079 C   0  0  0  0  0
   94.0834  131.1574  119.9954 C   0  0  0  0  0
   94.9692  130.8133  118.9605 C   0  0  0  0  0
   96.3350  131.0821  119.0623 C   0  0  0  0  0
   96.8373  131.7031  120.2046 C   0  0  0  0  0
   95.9732  132.0638  121.2388 C   0  0  0  0  0
   94.6023  131.7988  121.1485 C   0  0  0  0  0
   87.3665  131.7820  123.1018 C   0  0  0  0  0
   87.8844  133.0880  123.0435 C   0  0  0  0  0
   87.0591  134.1682  122.7196 C   0  0  0  0  0
   85.7040  133.9576  122.4555 C   0  0  0  0  0
   85.1739  132.6667  122.5133 C   0  0  0  0  0
   85.9997  131.5853  122.8332 C   0  0  0  0  0
   89.4416  130.6102  122.5545 N   0  0  0  0  0
   91.8341  130.6835  120.8643 N   0  0  0  0  0
   92.6854  130.8320  119.8555 N   0  0  0  0  0
   88.2595  130.2840  120.5612 O   0  0  0  0  0
   93.5956  132.3425  122.4830 Cl  0  0  0  0  0
   98.5483  132.0434  120.3359 Cl  0  0  0  0  0
  1  2  1  0  0  0
  2  3  1  0  0  0
  2 24  1  0  0  0
  2 18  1  0  0  0
  4  5  1  0  0  0
  7  5  1  0  0  0
  8  7  1  0  0  0
  9  8  1  0  0  0
  9 10  1  0  0  0
 10 11  1  0  0  0
 10  6  1  0  0  0
 11  9  1  0  0  0
 13 14  1  0  0  0
 15 16  1  0  0  0
 15 29  1  0  0  0
 17 28  1  0  0  0
 17 12  1  0  0  0
 19 20  1  0  0  0
 21 22  1  0  0  0
 23 18  1  0  0  0
 24  4  1  0  0  0
 26 25  1  0  0  0
 26  6  1  0  0  0
 26 12  1  0  0  0
  4 27  2  0  0  0
  5 25  2  0  0  0
  6  7  2  0  0  0
 12 13  2  0  0  0
 14 15  2  0  0  0
 16 17  2  0  0  0
 18 19  2  0  0  0
 20 21  2  0  0  0
 22 23  2  0  0  0
M  END
> <rmsd>
0.38909623

$$$$
CHEMBL244402_8GHV


 27 30  0  0  0  0  0  0  0  0999 V2000
   98.2401  129.3839  117.9241 C   0  0  0  0  0
   99.2328  129.7060  118.8516 C   0  0  0  0  0
   98.9300  130.5164  119.9477 C   0  0  0  0  0
   97.6338  131.0102  120.1196 C   0  0  0  0  0
   96.6182  130.6975  119.1790 C   0  0  0  0  0
   96.9420  129.8741  118.0879 C   0  0  0  0  0
   95.3063  131.1996  119.3731 C   0  0  0  0  0
   95.0488  131.9998  120.4978 C   0  0  0  0  0
   96.0550  132.3004  121.4165 C   0  0  0  0  0
   97.3448  131.8075  121.2272 C   0  0  0  0  0
   94.1962  130.9417  118.4157 C   0  0  0  0  0
   92.7860  130.8201  118.8758 C   0  0  0  0  0
   92.5401  130.2278  120.1217 C   0  0  0  0  0
   91.2411  130.0597  120.5962 C   0  0  0  0  0
   90.1428  130.4786  119.8351 C   0  0  0  0  0
   90.3617  131.0733  118.5820 C   0  0  0  0  0
   91.6848  131.2479  118.0933 C   0  0  0  0  0
   91.8694  131.8673  116.8458 C   0  0  0  0  0
   90.7763  132.2931  116.0889 C   0  0  0  0  0
   89.4798  132.1105  116.5698 C   0  0  0  0  0
   89.2735  131.5052  117.8102 C   0  0  0  0  0
   88.5249  129.7680  121.5867 C   0  0  0  0  0
   88.7415  130.8180  122.6645 C   0  0  0  0  0
   88.4293  130.2435  124.0345 C   0  0  0  0  0
   86.9293  130.1352  124.2344 C   0  0  0  0  0
   94.4560  130.8234  117.1873 O   0  0  0  0  0
   88.8325  130.3093  120.3066 O   0  0  0  0  0
  2  3  1  0  0  0
  4  5  1  0  0  0
  5  7  1  0  0  0
  6  1  1  0  0  0
  7 11  1  0  0  0
  8  9  1  0  0  0
 10  4  1  0  0  0
 11 12  1  0  0  0
 13 14  1  0  0  0
 15 16  1  0  0  0
 15 27  1  0  0  0
 17 18  1  0  0  0
 17 12  1  0  0  0
 19 20  1  0  0  0
 21 16  1  0  0  0
 22 27  1  0  0  0
 22 23  1  0  0  0
 23 24  1  0  0  0
 24 25  1  0  0  0
  1  2  2  0  0  0
  3  4  2  0  0  0
  5  6  2  0  0  0
  7  8  2  0  0  0
  9 10  2  0  0  0
 11 26  2  0  0  0
 12 13  2  0  0  0
 14 15  2  0  0  0
 16 17  2  0  0  0
 18 19  2  0  0  0
 20 21  2  0  0  0
M  END
> <rmsd>
0.529434443

$$$$
CHEMBL2206859_6N4B


 27 30  0  0  0  0  0  0  0  0999 V2000
   87.8761  130.0781  124.4544 C   0  0  0  0  0
   87.5726  130.0119  122.9729 C   0  0  0  0  0
   88.1649  131.2251  122.2815 C   0  0  0  0  0
   87.8909  131.1725  120.7866 C   0  0  0  0  0
   88.7518  130.1206  120.0961 C   0  0  0  0  0
   91.0289  130.7899  120.9089 C   0  0  0  0  0
   92.2321  131.2145  120.3455 C   0  0  0  0  0
   92.0187  131.2810  118.9778 C   0  0  0  0  0
   90.7239  130.8884  118.7599 C   0  0  0  0  0
   90.1701  130.8543  117.4790 C   0  0  0  0  0
   90.9879  131.2453  116.4042 C   0  0  0  0  0
   92.3168  131.6631  116.6293 C   0  0  0  0  0
   92.8462  131.6897  117.9314 C   0  0  0  0  0
   93.4491  131.5680  121.1039 C   0  0  0  0  0
   94.7935  131.5537  120.4824 C   0  0  0  0  0
   95.1468  130.4633  119.6769 C   0  0  0  0  0
   96.4094  130.3829  119.0919 C   0  0  0  0  0
   97.3523  131.3884  119.3033 C   0  0  0  0  0
   97.0290  132.4917  120.1127 C   0  0  0  0  0
   95.7432  132.5770  120.7110 C   0  0  0  0  0
   95.4332  133.6946  121.5036 C   0  0  0  0  0
   96.3746  134.7040  121.7128 C   0  0  0  0  0
   97.6386  134.6131  121.1294 C   0  0  0  0  0
   97.9637  133.5137  120.3330 C   0  0  0  0  0
   90.1196  130.5953  119.9242 N   0  0  0  0  0
   93.3385  131.8604  122.3253 O   0  0  0  0  0
   98.9268  131.2292  118.5355 Cl  0  0  0  0  0
  1  2  1  0  0  0
  2  3  1  0  0  0
  3  4  1  0  0  0
  4  5  1  0  0  0
  5 25  1  0  0  0
  7  8  1  0  0  0
  7 14  1  0  0  0
  9 10  1  0  0  0
  9 25  1  0  0  0
 11 12  1  0  0  0
 13  8  1  0  0  0
 14 15  1  0  0  0
 16 17  1  0  0  0
 18 19  1  0  0  0
 18 27  1  0  0  0
 20 21  1  0  0  0
 20 15  1  0  0  0
 22 23  1  0  0  0
 24 19  1  0  0  0
 25  6  1  0  0  0
  6  7  2  0  0  0
  8  9  2  0  0  0
 10 11  2  0  0  0
 12 13  2  0  0  0
 14 26  2  0  0  0
 15 16  2  0  0  0
 17 18  2  0  0  0
 19 20  2  0  0  0
 21 22  2  0  0  0
 23 24  2  0  0  0
M  END
> <rmsd>
0.525728524

$$$$
CHEMBL467328_5U09


 32 36  0  0  0  0  0  0  0  0999 V2000
   91.6978  130.5993  120.1376 C   0  0  0  0  0
   92.9027  131.0580  119.5359 C   0  0  0  0  0
   91.7780  131.4228  117.4670 C   0  0  0  0  0
   90.5614  131.0076  118.0358 C   0  0  0  0  0
   90.5273  130.5953  119.3653 C   0  0  0  0  0
   89.4407  131.0227  117.2141 C   0  0  0  0  0
   90.7103  131.8257  115.3684 C   0  0  0  0  0
   90.8187  132.2749  113.9220 C   0  0  0  0  0
   92.2434  132.6706  113.5637 C   0  0  0  0  0
   90.4133  131.1487  112.9892 C   0  0  0  0  0
   89.9376  133.4863  113.6794 C   0  0  0  0  0
   88.2603  131.2887  115.4976 C   0  0  0  0  0
   94.1687  131.1765  120.2828 C   0  0  0  0  0
   95.2536  130.3805  119.8928 C   0  0  0  0  0
   96.4721  130.4628  120.5708 C   0  0  0  0  0
   96.6181  131.3495  121.6393 C   0  0  0  0  0
   95.5486  132.1612  122.0245 C   0  0  0  0  0
   94.3253  132.0858  121.3512 C   0  0  0  0  0
   91.6199  130.0943  121.5312 C   0  0  0  0  0
   90.4739  130.3412  122.3038 C   0  0  0  0  0
   90.3797  129.8549  123.6106 C   0  0  0  0  0
   91.4266  129.1079  124.1554 C   0  0  0  0  0
   92.5662  128.8440  123.3922 C   0  0  0  0  0
   92.6598  129.3308  122.0857 C   0  0  0  0  0
   92.9026  131.4388  118.2269 N   0  0  0  0  0
   89.5300  131.4191  115.9342 N   0  0  0  0  0
   91.8261  131.8190  116.1614 N   0  0  0  0  0
   87.4411  130.8344  116.4677 N   0  0  0  0  0
   88.1861  130.6654  117.5542 N   0  0  0  0  0
   87.8668  131.5527  114.3316 O   0  0  0  0  0
   93.0365  133.1745  121.8458 Cl  0  0  0  0  0
   88.9483  130.1803  124.5630 Cl  0  0  0  0  0
  1  2  1  0  0  0
  1 19  1  0  0  0
  2 13  1  0  0  0
  3 25  1  0  0  0
  3 27  1  0  0  0
  4  5  1  0  0  0
  4  6  1  0  0  0
  6 26  1  0  0  0
  8  7  1  0  0  0
  8  9  1  0  0  0
  8 10  1  0  0  0
  8 11  1  0  0  0
 12 28  1  0  0  0
 14 15  1  0  0  0
 16 17  1  0  0  0
 18 31  1  0  0  0
 18 13  1  0  0  0
 20 21  1  0  0  0
 21 32  1  0  0  0
 22 23  1  0  0  0
 24 19  1  0  0  0
 26  7  1  0  0  0
 26 12  1  0  0  0
 28 29  1  0  0  0
  2 25  2  0  0  0
  3  4  2  0  0  0
  5  1  2  0  0  0
  6 29  2  0  0  0
  7 27  2  0  0  0
 12 30  2  0  0  0
 13 14  2  0  0  0
 15 16  2  0  0  0
 17 18  2  0  0  0
 19 20  2  0  0  0
 21 22  2  0  0  0
 23 24  2  0  0  0
M  END
> <rmsd>
0.794211864

$$$$
CHEMBL2206847_6N4B


 28 31  0  0  0  0  0  0  0  0999 V2000
   92.2781  132.5394  117.1931 C   0  0  0  0  0
   90.8966  132.3950  116.9480 C   0  0  0  0  0
   90.0979  131.6134  117.8002 C   0  0  0  0  0
   90.7197  130.9931  118.8853 C   0  0  0  0  0
   92.0657  131.1316  119.1248 C   0  0  0  0  0
   92.8781  131.9036  118.2933 C   0  0  0  0  0
   92.3608  130.3965  120.2657 C   0  0  0  0  0
   91.1408  129.8397  120.6641 C   0  0  0  0  0
   88.7397  129.8420  119.9109 C   0  0  0  0  0
   87.9186  130.9988  120.4692 C   0  0  0  0  0
   88.2290  131.2444  121.9374 C   0  0  0  0  0
   87.6154  130.1566  122.7981 C   0  0  0  0  0
   87.9682  130.4037  124.2494 C   0  0  0  0  0
   90.9330  128.9448  121.8417 C   0  0  0  0  0
   93.6811  130.2207  120.9184 C   0  0  0  0  0
   94.8956  130.8295  120.3609 C   0  0  0  0  0
   95.2871  132.0382  120.9493 C   0  0  0  0  0
   96.3658  132.7639  120.4556 C   0  0  0  0  0
   97.0677  132.2956  119.3516 C   0  0  0  0  0
   96.7086  131.0920  118.7450 C   0  0  0  0  0
   95.6254  130.3103  119.2478 C   0  0  0  0  0
   95.3530  129.0642  118.6036 C   0  0  0  0  0
   96.1089  128.6739  117.4939 C   0  0  0  0  0
   97.1393  129.4709  117.0063 C   0  0  0  0  0
   97.4419  130.6723  117.6354 C   0  0  0  0  0
   90.1498  130.2077  119.8171 N   0  0  0  0  0
   93.7694  129.5795  121.9994 O   0  0  0  0  0
   94.0636  127.7558  119.1577 Br  0  0  0  0  0
  2  3  1  0  0  0
  4  5  1  0  0  0
  5  7  1  0  0  0
  6  1  1  0  0  0
  7 15  1  0  0  0
  8 26  1  0  0  0
  9 26  1  0  0  0
  9 10  1  0  0  0
 10 11  1  0  0  0
 11 12  1  0  0  0
 12 13  1  0  0  0
 14  8  1  0  0  0
 15 16  1  0  0  0
 17 18  1  0  0  0
 19 20  1  0  0  0
 21 22  1  0  0  0
 21 16  1  0  0  0
 22 28  1  0  0  0
 23 24  1  0  0  0
 25 20  1  0  0  0
 26  4  1  0  0  0
  1  2  2  0  0  0
  3  4  2  0  0  0
  5  6  2  0  0  0
  7  8  2  0  0  0
 15 27  2  0  0  0
 16 17  2  0  0  0
 18 19  2  0  0  0
 20 21  2  0  0  0
 22 23  2  0  0  0
 24 25  2  0  0  0
M  END
> <rmsd>
0.611171305

$$$$
CHEMBL1760646_5U09


 34 36  0  0  0  0  0  0  0  0999 V2000
   96.7431  130.7348  116.8676 C   0  0  0  0  0
   95.7060  130.8925  119.1114 C   0  0  0  0  0
   96.6552  131.8321  119.5451 C   0  0  0  0  0
   96.5950  132.3534  120.8390 C   0  0  0  0  0
   95.5843  131.9431  121.7209 C   0  0  0  0  0
   96.3914  133.4005  123.5812 C   0  0  0  0  0
   94.6390  131.0091  121.2900 C   0  0  0  0  0
   94.6926  130.4824  119.9942 C   0  0  0  0  0
   93.6520  129.4996  119.5586 C   0  0  0  0  0
   91.3411  130.2876  120.2333 C   0  0  0  0  0
   91.2988  129.6821  121.5782 C   0  0  0  0  0
   90.0937  129.3824  123.7764 C   0  0  0  0  0
   88.8157  129.8339  124.4843 C   0  0  0  0  0
   87.5867  129.4115  123.6937 C   0  0  0  0  0
   88.8119  131.3447  124.6299 C   0  0  0  0  0
   88.7615  129.2246  125.8805 C   0  0  0  0  0
   90.3035  131.0609  119.7035 C   0  0  0  0  0
   90.7595  131.4111  118.4483 C   0  0  0  0  0
   90.1454  132.1861  117.4675 C   0  0  0  0  0
   90.8454  132.3961  116.2655 C   0  0  0  0  0
   90.2536  133.1879  115.2248 C   0  0  0  0  0
   92.1266  131.8342  116.0766 C   0  0  0  0  0
   92.7219  131.0563  117.0849 C   0  0  0  0  0
   92.0019  130.8652  118.2651 C   0  0  0  0  0
   95.7562  130.3588  117.8183 O   0  0  0  0  0
   95.4918  132.4438  123.0257 O   0  0  0  0  0
   92.2289  128.9266  121.9695 O   0  0  0  0  0
   88.7555  127.8279  125.8231 O   0  0  0  0  0
   96.3521  134.5717  122.8460 F   0  0  0  0  0
   96.0132  133.6736  124.8814 F   0  0  0  0  0
   97.6792  132.8951  123.5843 F   0  0  0  0  0
   92.3708  130.1702  119.3529 N   0  0  0  0  0
   90.1897  129.9507  122.4377 N   0  0  0  0  0
   89.7764  133.8263  114.3858 N   0  0  0  0  0
  1 25  1  0  0  0
  2 25  1  0  0  0
  3  4  1  0  0  0
  5 26  1  0  0  0
  5  7  1  0  0  0
  6 26  1  0  0  0
  6 29  1  0  0  0
  6 30  1  0  0  0
  6 31  1  0  0  0
  8  2  1  0  0  0
  9  8  1  0  0  0
  9 32  1  0  0  0
 10 11  1  0  0  0
 11 33  1  0  0  0
 12 33  1  0  0  0
 12 13  1  0  0  0
 13 14  1  0  0  0
 13 15  1  0  0  0
 13 16  1  0  0  0
 16 28  1  0  0  0
 17 18  1  0  0  0
 19 20  1  0  0  0
 20 21  1  0  0  0
 22 23  1  0  0  0
 24 32  1  0  0  0
 24 18  1  0  0  0
 32 10  1  0  0  0
  2  3  2  0  0  0
  4  5  2  0  0  0
  7  8  2  0  0  0
 10 17  2  0  0  0
 11 27  2  0  0  0
 18 19  2  0  0  0
 20 22  2  0  0  0
 23 24  2  0  0  0
 21 34  3  0  0  0
M  END
> <rmsd>
0.19844313

$$$$
CHEMBL1760664_5U09


 32 34  0  0  0  0  0  0  0  0999 V2000
   95.8691  129.7151  117.8453 C   0  0  0  0  0
   95.8404  130.5937  119.0495 C   0  0  0  0  0
   96.8872  131.4994  119.2443 C   0  0  0  0  0
   96.8991  132.3340  120.3645 C   0  0  0  0  0
   95.8578  132.2773  121.2999 C   0  0  0  0  0
   95.8959  133.1402  122.5273 C   0  0  0  0  0
   94.8205  131.3543  121.1146 C   0  0  0  0  0
   94.7976  130.5180  119.9920 C   0  0  0  0  0
   93.6556  129.5642  119.8176 C   0  0  0  0  0
   91.4707  130.6688  120.4677 C   0  0  0  0  0
   91.4907  130.3392  121.9061 C   0  0  0  0  0
   90.4467  130.5815  124.1895 C   0  0  0  0  0
   89.2557  131.2795  124.8411 C   0  0  0  0  0
   87.9288  130.5302  124.6820 C   0  0  0  0  0
   88.0326  129.1257  125.2504 C   0  0  0  0  0
   87.5159  130.4532  123.2230 C   0  0  0  0  0
   90.4593  131.4220  119.8641 C   0  0  0  0  0
   90.8409  131.4860  118.5388 C   0  0  0  0  0
   90.2147  132.1166  117.4664 C   0  0  0  0  0
   90.8329  132.0327  116.2057 C   0  0  0  0  0
   90.2248  132.6648  115.0697 C   0  0  0  0  0
   92.0477  131.3307  116.0504 C   0  0  0  0  0
   92.6571  130.7039  117.1513 C   0  0  0  0  0
   92.0181  130.8029  118.3881 C   0  0  0  0  0
   96.4667  134.3663  122.2334 F   0  0  0  0  0
   96.6479  132.5132  123.5032 F   0  0  0  0  0
   94.6161  133.3539  123.0107 F   0  0  0  0  0
   92.4154  130.2933  119.5647 N   0  0  0  0  0
   90.4849  130.8776  122.7664 N   0  0  0  0  0
   89.7343  133.1740  114.1533 N   0  0  0  0  0
   92.3829  129.5837  122.3773 O   0  0  0  0  0
   86.9434  131.2218  125.3848 O   0  0  0  0  0
  1  2  1  0  0  0
  3  4  1  0  0  0
  5  7  1  0  0  0
  6  5  1  0  0  0
  6 25  1  0  0  0
  6 26  1  0  0  0
  6 27  1  0  0  0
  8  2  1  0  0  0
  9  8  1  0  0  0
  9 28  1  0  0  0
 10 11  1  0  0  0
 11 29  1  0  0  0
 12 29  1  0  0  0
 12 13  1  0  0  0
 13 14  1  0  0  0
 14 15  1  0  0  0
 14 16  1  0  0  0
 14 32  1  0  0  0
 17 18  1  0  0  0
 19 20  1  0  0  0
 20 21  1  0  0  0
 22 23  1  0  0  0
 24 28  1  0  0  0
 24 18  1  0  0  0
 28 10  1  0  0  0
  2  3  2  0  0  0
  4  5  2  0  0  0
  7  8  2  0  0  0
 10 17  2  0  0  0
 11 31  2  0  0  0
 18 19  2  0  0  0
 20 22  2  0  0  0
 23 24  2  0  0  0
 21 30  3  0  0  0
M  END
> <rmsd>
0.20096983

$$$$
CHEMBL1760659_5U09


 31 34  0  0  0  0  0  0  0  0999 V2000
   96.6919  129.6547  117.0890 C   0  0  0  0  0
   95.7206  130.5401  119.1884 C   0  0  0  0  0
   96.7979  131.4216  119.3801 C   0  0  0  0  0
   96.8307  132.2698  120.4897 C   0  0  0  0  0
   95.7880  132.2444  121.4178 C   0  0  0  0  0
   94.7125  131.3731  121.2356 C   0  0  0  0  0
   94.6728  130.5206  120.1259 C   0  0  0  0  0
   93.5001  129.6100  119.9421 C   0  0  0  0  0
   91.3283  130.8533  120.3351 C   0  0  0  0  0
   91.2217  130.6323  121.7900 C   0  0  0  0  0
   89.9392  131.0154  123.9427 C   0  0  0  0  0
   88.9628  129.8593  124.1618 C   0  0  0  0  0
   89.4766  128.4949  123.7132 C   0  0  0  0  0
   88.4197  129.8373  125.5762 C   0  0  0  0  0
   87.0287  130.1310  125.0422 C   0  0  0  0  0
   87.5756  130.1521  123.6259 C   0  0  0  0  0
   90.3965  131.5902  119.5975 C   0  0  0  0  0
   90.8782  131.5333  118.3049 C   0  0  0  0  0
   90.3600  132.0962  117.1413 C   0  0  0  0  0
   91.0647  131.8858  115.9421 C   0  0  0  0  0
   90.5699  132.4461  114.7168 C   0  0  0  0  0
   92.2559  131.1284  115.9361 C   0  0  0  0  0
   92.7556  130.5724  117.1267 C   0  0  0  0  0
   92.0333  130.7980  118.2995 C   0  0  0  0  0
   95.6768  129.6822  118.0830 O   0  0  0  0  0
   92.0570  129.9027  122.3886 O   0  0  0  0  0
   90.6040  128.1297  124.4516 O   0  0  0  0  0
   95.8260  133.3068  122.8077 Cl  0  0  0  0  0
   92.3205  130.3717  119.5398 N   0  0  0  0  0
   90.1624  131.2540  122.5224 N   0  0  0  0  0
   90.1709  132.8978  113.7288 N   0  0  0  0  0
  1 25  1  0  0  0
  2 25  1  0  0  0
  3  4  1  0  0  0
  5 28  1  0  0  0
  5  6  1  0  0  0
  7  2  1  0  0  0
  8  7  1  0  0  0
  8 29  1  0  0  0
  9 10  1  0  0  0
 10 30  1  0  0  0
 11 30  1  0  0  0
 11 12  1  0  0  0
 12 13  1  0  0  0
 12 14  1  0  0  0
 13 27  1  0  0  0
 14 15  1  0  0  0
 15 16  1  0  0  0
 16 12  1  0  0  0
 17 18  1  0  0  0
 19 20  1  0  0  0
 20 21  1  0  0  0
 22 23  1  0  0  0
 24 29  1  0  0  0
 24 18  1  0  0  0
 29  9  1  0  0  0
  2  3  2  0  0  0
  4  5  2  0  0  0
  6  7  2  0  0  0
  9 17  2  0  0  0
 10 26  2  0  0  0
 18 19  2  0  0  0
 20 22  2  0  0  0
 23 24  2  0  0  0
 21 31  3  0  0  0
M  END
> <rmsd>
0.279561132

$$$$
CHEMBL4549096_6N4B


 30 33  0  0  0  0  0  0  0  0999 V2000
   88.3376  130.5164  124.2702 C   0  0  0  0  0
   87.8622  130.2216  122.8635 C   0  0  0  0  0
   88.3822  131.2900  121.9207 C   0  0  0  0  0
   87.9374  131.0042  120.4945 C   0  0  0  0  0
   88.7054  129.8296  119.8988 C   0  0  0  0  0
   91.1485  129.5968  120.3461 C   0  0  0  0  0
   92.3402  130.1575  119.8863 C   0  0  0  0  0
   91.9868  131.0805  118.9147 C   0  0  0  0  0
   92.7614  131.8851  118.0784 C   0  0  0  0  0
   92.0912  132.7042  117.1530 C   0  0  0  0  0
   90.6824  132.6929  117.0745 C   0  0  0  0  0
   89.9267  131.8596  117.9176 C   0  0  0  0  0
   90.6190  131.0624  118.8309 C   0  0  0  0  0
   93.6931  129.7638  120.3290 C   0  0  0  0  0
   94.8620  130.6597  120.1688 C   0  0  0  0  0
   94.7245  132.0015  120.5320 C   0  0  0  0  0
   95.7950  132.8839  120.4278 C   0  0  0  0  0
   97.0445  132.4610  119.9593 C   0  0  0  0  0
   97.2146  131.0956  119.6079 C   0  0  0  0  0
   98.4551  130.5988  119.1747 C   0  0  0  0  0
   98.6143  129.2570  118.8280 C   0  0  0  0  0
   97.5329  128.3831  118.9121 C   0  0  0  0  0
   96.2941  128.8486  119.3515 C   0  0  0  0  0
   96.1165  130.1945  119.7142 C   0  0  0  0  0
   98.1185  133.4883  119.8673 C   0  0  0  0  0
   99.2710  133.3654  118.9254 C   0  0  0  0  0
   98.8899  133.9191  117.5666 C   0  0  0  0  0
   90.1082  130.1728  119.7015 N   0  0  0  0  0
   93.8467  128.6442  120.8878 O   0  0  0  0  0
   98.0293  134.5416  120.5541 O   0  0  0  0  0
  1  2  1  0  0  0
  2  3  1  0  0  0
  3  4  1  0  0  0
  4  5  1  0  0  0
  5 28  1  0  0  0
  7  8  1  0  0  0
  7 14  1  0  0  0
  9 10  1  0  0  0
 11 12  1  0  0  0
 13 28  1  0  0  0
 13  8  1  0  0  0
 14 15  1  0  0  0
 16 17  1  0  0  0
 18 19  1  0  0  0
 18 25  1  0  0  0
 20 21  1  0  0  0
 22 23  1  0  0  0
 24 15  1  0  0  0
 24 19  1  0  0  0
 26 25  1  0  0  0
 26 27  1  0  0  0
 28  6  1  0  0  0
  6  7  2  0  0  0
  8  9  2  0  0  0
 10 11  2  0  0  0
 12 13  2  0  0  0
 14 29  2  0  0  0
 15 16  2  0  0  0
 17 18  2  0  0  0
 19 20  2  0  0  0
 21 22  2  0  0  0
 23 24  2  0  0  0
 25 30  2  0  0  0
M  END
> <rmsd>
0.533881962

$$$$
CHEMBL4069848_6N4B


 24 26  0  0  0  0  0  0  0  0999 V2000
   88.1626  130.1606  124.6417 C   0  0  0  0  0
   88.0064  129.5887  123.2487 C   0  0  0  0  0
   88.3239  130.6588  122.2264 C   0  0  0  0  0
   88.1763  130.0844  120.8309 C   0  0  0  0  0
   88.5185  131.1338  119.7843 C   0  0  0  0  0
   90.8125  131.8091  120.5417 C   0  0  0  0  0
   92.1062  131.7988  120.0209 C   0  0  0  0  0
   92.0082  131.2603  118.7478 C   0  0  0  0  0
   90.6881  130.9494  118.5504 C   0  0  0  0  0
   90.2303  130.4098  117.3472 C   0  0  0  0  0
   91.1742  130.1950  116.3275 C   0  0  0  0  0
   92.5311  130.5281  116.5250 C   0  0  0  0  0
   92.9619  131.0751  117.7463 C   0  0  0  0  0
   93.3009  132.3412  120.6995 C   0  0  0  0  0
   94.6671  131.8599  120.3952 C   0  0  0  0  0
   94.8745  130.4955  120.1400 C   0  0  0  0  0
   96.1553  130.0039  119.8832 C   0  0  0  0  0
   97.2477  130.8708  119.8865 C   0  0  0  0  0
   97.0587  132.2289  120.1479 C   0  0  0  0  0
   95.7740  132.7365  120.4065 C   0  0  0  0  0
   96.6497  135.0387  120.6824 C   0  0  0  0  0
   89.9628  131.2688  119.6361 N   0  0  0  0  0
   93.1417  133.2207  121.5886 O   0  0  0  0  0
   95.5825  134.1005  120.6604 O   0  0  0  0  0
  1  2  1  0  0  0
  2  3  1  0  0  0
  3  4  1  0  0  0
  4  5  1  0  0  0
  5 22  1  0  0  0
  7  8  1  0  0  0
  7 14  1  0  0  0
  9 10  1  0  0  0
  9 22  1  0  0  0
 11 12  1  0  0  0
 13  8  1  0  0  0
 14 15  1  0  0  0
 16 17  1  0  0  0
 18 19  1  0  0  0
 20 24  1  0  0  0
 20 15  1  0  0  0
 21 24  1  0  0  0
 22  6  1  0  0  0
  6  7  2  0  0  0
  8  9  2  0  0  0
 10 11  2  0  0  0
 12 13  2  0  0  0
 14 23  2  0  0  0
 15 16  2  0  0  0
 17 18  2  0  0  0
 19 20  2  0  0  0
M  END
> <rmsd>
0.566987634

$$$$
CHEMBL1760651_5U09


 30 32  0  0  0  0  0  0  0  0999 V2000
   94.4570  128.6374  122.3193 C   0  0  0  0  0
   94.9518  130.6524  120.9660 C   0  0  0  0  0
   96.2533  130.2063  120.6802 C   0  0  0  0  0
   97.1065  130.9731  119.8833 C   0  0  0  0  0
   96.6679  132.1929  119.3650 C   0  0  0  0  0
   97.5742  133.0090  118.5163 C   0  0  0  0  0
   95.3763  132.6451  119.6427 C   0  0  0  0  0
   94.5150  131.8826  120.4392 C   0  0  0  0  0
   93.1334  132.3989  120.6981 C   0  0  0  0  0
   91.1793  130.8032  120.4875 C   0  0  0  0  0
   90.9419  130.5797  121.9266 C   0  0  0  0  0
   89.6159  129.4075  123.7412 C   0  0  0  0  0
   88.4140  130.2453  124.1781 C   0  0  0  0  0
   87.2038  129.8973  123.3246 C   0  0  0  0  0
   88.1055  129.9002  125.6230 C   0  0  0  0  0
   88.7352  131.7352  124.0667 C   0  0  0  0  0
   90.4121  130.2100  119.4803 C   0  0  0  0  0
   90.9504  130.7140  118.3136 C   0  0  0  0  0
   90.5802  130.4746  116.9925 C   0  0  0  0  0
   91.3014  131.1339  115.9807 C   0  0  0  0  0
   90.9573  130.9183  114.6040 C   0  0  0  0  0
   92.3598  132.0076  116.3105 C   0  0  0  0  0
   92.7107  132.2306  117.6533 C   0  0  0  0  0
   91.9791  131.5591  118.6346 C   0  0  0  0  0
   94.0892  129.8923  121.7636 O   0  0  0  0  0
   91.5994  131.2202  122.7904 O   0  0  0  0  0
   87.6510  132.5194  124.4707 O   0  0  0  0  0
   92.1368  131.6170  119.9677 N   0  0  0  0  0
   89.9557  129.6301  122.3398 N   0  0  0  0  0
   90.6799  130.7445  113.4940 N   0  0  0  0  0
  1 25  1  0  0  0
  2 25  1  0  0  0
  3  4  1  0  0  0
  5  7  1  0  0  0
  6  5  1  0  0  0
  8  2  1  0  0  0
  9  8  1  0  0  0
  9 28  1  0  0  0
 10 11  1  0  0  0
 11 29  1  0  0  0
 12 29  1  0  0  0
 12 13  1  0  0  0
 13 14  1  0  0  0
 13 15  1  0  0  0
 13 16  1  0  0  0
 16 27  1  0  0  0
 17 18  1  0  0  0
 19 20  1  0  0  0
 20 21  1  0  0  0
 22 23  1  0  0  0
 24 28  1  0  0  0
 24 18  1  0  0  0
 28 10  1  0  0  0
  2  3  2  0  0  0
  4  5  2  0  0  0
  7  8  2  0  0  0
 10 17  2  0  0  0
 11 26  2  0  0  0
 18 19  2  0  0  0
 20 22  2  0  0  0
 23 24  2  0  0  0
 21 30  3  0  0  0
M  END
> <rmsd>
0.23671788

$$$$
CHEMBL1760653_5U09


 29 31  0  0  0  0  0  0  0  0999 V2000
   94.2396  129.6742  121.7509 C   0  0  0  0  0
   95.0495  130.5958  120.9052 C   0  0  0  0  0
   96.3491  130.2120  120.5588 C   0  0  0  0  0
   97.1465  131.0478  119.7735 C   0  0  0  0  0
   96.6474  132.2747  119.3319 C   0  0  0  0  0
   95.3508  132.6652  119.6739 C   0  0  0  0  0
   94.5428  131.8334  120.4573 C   0  0  0  0  0
   93.1535  132.2950  120.7825 C   0  0  0  0  0
   91.1665  130.7508  120.5156 C   0  0  0  0  0
   90.9085  130.5031  121.9475 C   0  0  0  0  0
   89.5156  129.3496  123.7238 C   0  0  0  0  0
   88.3470  130.2295  124.1688 C   0  0  0  0  0
   88.0097  129.8663  125.6027 C   0  0  0  0  0
   87.1313  129.9538  123.2969 C   0  0  0  0  0
   88.7342  131.7060  124.0939 C   0  0  0  0  0
   90.3857  130.2089  119.4902 C   0  0  0  0  0
   90.9444  130.7270  118.3397 C   0  0  0  0  0
   90.5682  130.5391  117.0119 C   0  0  0  0  0
   91.3086  131.2080  116.0207 C   0  0  0  0  0
   90.9597  131.0444  114.6380 C   0  0  0  0  0
   92.3900  132.0421  116.3770 C   0  0  0  0  0
   92.7457  132.2137  117.7261 C   0  0  0  0  0
   91.9967  131.5317  118.6869 C   0  0  0  0  0
   97.6447  133.3225  118.3473 Cl  0  0  0  0  0
   92.1535  131.5455  120.0221 N   0  0  0  0  0
   89.8784  129.5881  122.3307 N   0  0  0  0  0
   90.6783  130.9126  113.5233 N   0  0  0  0  0
   91.5862  131.0933  122.8313 O   0  0  0  0  0
   87.6813  132.5277  124.5058 O   0  0  0  0  0
  1  2  1  0  0  0
  3  4  1  0  0  0
  5 24  1  0  0  0
  5  6  1  0  0  0
  7  2  1  0  0  0
  8  7  1  0  0  0
  8 25  1  0  0  0
  9 10  1  0  0  0
 10 26  1  0  0  0
 11 26  1  0  0  0
 11 12  1  0  0  0
 12 13  1  0  0  0
 12 14  1  0  0  0
 12 15  1  0  0  0
 15 29  1  0  0  0
 16 17  1  0  0  0
 18 19  1  0  0  0
 19 20  1  0  0  0
 21 22  1  0  0  0
 23 25  1  0  0  0
 23 17  1  0  0  0
 25  9  1  0  0  0
  2  3  2  0  0  0
  4  5  2  0  0  0
  6  7  2  0  0  0
  9 16  2  0  0  0
 10 28  2  0  0  0
 17 18  2  0  0  0
 19 21  2  0  0  0
 22 23  2  0  0  0
 20 27  3  0  0  0
M  END
> <rmsd>
0.258741558

$$$$
CHEMBL1760655_5U09


 31 33  0  0  0  0  0  0  0  0999 V2000
  100.2724  130.7360  118.4773 C   0  0  0  0  0
   99.7260  131.9427  119.2147 C   0  0  0  0  0
   98.6565  132.6288  118.3790 C   0  0  0  0  0
   96.5993  131.6057  119.3328 C   0  0  0  0  0
   96.7545  132.2552  120.5687 C   0  0  0  0  0
   95.8410  132.0308  121.6025 C   0  0  0  0  0
   94.7680  131.1574  121.4082 C   0  0  0  0  0
   94.6095  130.5039  120.1819 C   0  0  0  0  0
   93.4482  129.5936  119.9616 C   0  0  0  0  0
   91.2745  130.8384  120.3426 C   0  0  0  0  0
   91.1516  130.6071  121.7945 C   0  0  0  0  0
   89.8525  130.9811  123.9384 C   0  0  0  0  0
   88.7574  129.9338  124.1577 C   0  0  0  0  0
   88.5080  129.7960  125.6481 C   0  0  0  0  0
   87.4647  130.3921  123.5073 C   0  0  0  0  0
   89.1485  128.5772  123.5748 C   0  0  0  0  0
   90.3510  131.5806  119.5997 C   0  0  0  0  0
   90.8447  131.5291  118.3113 C   0  0  0  0  0
   90.3383  132.0982  117.1455 C   0  0  0  0  0
   91.0538  131.8918  115.9520 C   0  0  0  0  0
   90.5714  132.4585  114.7246 C   0  0  0  0  0
   92.2436  131.1320  115.9535 C   0  0  0  0  0
   92.7312  130.5695  117.1462 C   0  0  0  0  0
   91.9983  130.7916  118.3132 C   0  0  0  0  0
   95.5215  130.7342  119.1465 C   0  0  0  0  0
   97.4921  131.8132  118.2754 O   0  0  0  0  0
   91.9748  129.8661  122.3958 O   0  0  0  0  0
   90.3042  128.0804  124.1837 O   0  0  0  0  0
   92.2731  130.3590  119.5541 N   0  0  0  0  0
   90.0884  131.2294  122.5203 N   0  0  0  0  0
   90.1826  132.9154  113.7350 N   0  0  0  0  0
  1  2  1  0  0  0
  2  3  1  0  0  0
  3 26  1  0  0  0
  4 26  1  0  0  0
  5  6  1  0  0  0
  7  8  1  0  0  0
  9  8  1  0  0  0
  9 29  1  0  0  0
 10 11  1  0  0  0
 11 30  1  0  0  0
 12 30  1  0  0  0
 12 13  1  0  0  0
 13 14  1  0  0  0
 13 15  1  0  0  0
 13 16  1  0  0  0
 16 28  1  0  0  0
 17 18  1  0  0  0
 19 20  1  0  0  0
 20 21  1  0  0  0
 22 23  1  0  0  0
 24 29  1  0  0  0
 24 18  1  0  0  0
 25  4  1  0  0  0
 29 10  1  0  0  0
  4  5  2  0  0  0
  6  7  2  0  0  0
  8 25  2  0  0  0
 10 17  2  0  0  0
 11 27  2  0  0  0
 18 19  2  0  0  0
 20 22  2  0  0  0
 23 24  2  0  0  0
 21 31  3  0  0  0
M  END
> <rmsd>
0.240839332

$$$$
CHEMBL1760652_5U09


 32 34  0  0  0  0  0  0  0  0999 V2000
   94.2865  129.5358  121.7232 C   0  0  0  0  0
   95.0454  130.5293  120.9126 C   0  0  0  0  0
   96.3499  130.2127  120.5230 C   0  0  0  0  0
   97.0998  131.1159  119.7665 C   0  0  0  0  0
   96.5486  132.3446  119.3818 C   0  0  0  0  0
   97.3696  133.3377  118.6119 C   0  0  0  0  0
   95.2492  132.6706  119.7914 C   0  0  0  0  0
   94.4885  131.7708  120.5457 C   0  0  0  0  0
   93.0941  132.1676  120.9288 C   0  0  0  0  0
   91.1501  130.5821  120.5940 C   0  0  0  0  0
   90.9314  130.2276  122.0098 C   0  0  0  0  0
   89.6221  128.9018  123.7279 C   0  0  0  0  0
   88.4359  129.7108  124.2630 C   0  0  0  0  0
   88.7391  131.2012  124.2553 C   0  0  0  0  0
   87.2096  129.4563  123.4058 C   0  0  0  0  0
   88.1166  129.2643  125.6849 C   0  0  0  0  0
   90.3648  130.0868  119.5487 C   0  0  0  0  0
   90.8812  130.7019  118.4265 C   0  0  0  0  0
   90.4822  130.5939  117.0965 C   0  0  0  0  0
   91.1791  131.3542  116.1401 C   0  0  0  0  0
   90.8054  131.2753  114.7566 C   0  0  0  0  0
   92.2409  132.1971  116.5327 C   0  0  0  0  0
   92.6204  132.2867  117.8831 C   0  0  0  0  0
   91.9147  131.5151  118.8084 C   0  0  0  0  0
   96.5558  134.1071  117.7982 F   0  0  0  0  0
   98.0348  134.1649  119.4974 F   0  0  0  0  0
   98.2975  132.6863  117.8176 F   0  0  0  0  0
   92.1003  131.4415  120.1380 N   0  0  0  0  0
   89.9433  129.2507  122.3480 N   0  0  0  0  0
   90.5040  131.2117  113.6410 N   0  0  0  0  0
   91.6053  130.7815  122.9198 O   0  0  0  0  0
   89.2039  129.4757  126.5376 O   0  0  0  0  0
  1  2  1  0  0  0
  3  4  1  0  0  0
  5  7  1  0  0  0
  6  5  1  0  0  0
  6 25  1  0  0  0
  6 26  1  0  0  0
  6 27  1  0  0  0
  8  2  1  0  0  0
  9  8  1  0  0  0
  9 28  1  0  0  0
 10 11  1  0  0  0
 11 29  1  0  0  0
 12 29  1  0  0  0
 12 13  1  0  0  0
 13 14  1  0  0  0
 13 15  1  0  0  0
 13 16  1  0  0  0
 16 32  1  0  0  0
 17 18  1  0  0  0
 19 20  1  0  0  0
 20 21  1  0  0  0
 22 23  1  0  0  0
 24 28  1  0  0  0
 24 18  1  0  0  0
 28 10  1  0  0  0
  2  3  2  0  0  0
  4  5  2  0  0  0
  7  8  2  0  0  0
 10 17  2  0  0  0
 11 31  2  0  0  0
 18 19  2  0  0  0
 20 22  2  0  0  0
 23 24  2  0  0  0
 21 30  3  0  0  0
M  END
> <rmsd>
0.206112951

$$$$
CHEMBL2022360_6N4B


 27 30  0  0  0  0  0  0  0  0999 V2000
   91.4982  131.1756  115.5124 C   0  0  0  0  0
   92.4779  132.0845  115.9181 C   0  0  0  0  0
   92.6927  132.3216  117.2784 C   0  0  0  0  0
   91.9307  131.6503  118.2528 C   0  0  0  0  0
   90.9416  130.7382  117.8271 C   0  0  0  0  0
   90.7302  130.5034  116.4657 C   0  0  0  0  0
   90.1737  130.0728  118.7718 C   0  0  0  0  0
   90.3669  130.2993  120.1364 C   0  0  0  0  0
   91.3622  131.2233  120.5336 C   0  0  0  0  0
   93.1715  132.7998  120.0418 C   0  0  0  0  0
   94.4547  132.0751  120.2871 C   0  0  0  0  0
   95.3684  131.8919  119.2429 C   0  0  0  0  0
   96.5600  131.1962  119.4679 C   0  0  0  0  0
   96.8386  130.6793  120.7369 C   0  0  0  0  0
   95.9252  130.8574  121.7805 C   0  0  0  0  0
   94.7336  131.5532  121.5552 C   0  0  0  0  0
   89.5140  129.5592  121.1010 C   0  0  0  0  0
   88.8719  129.0229  123.4980 C   0  0  0  0  0
   87.4818  129.6672  123.5567 C   0  0  0  0  0
   87.5501  131.0846  124.1240 C   0  0  0  0  0
   88.1867  131.0667  125.5098 C   0  0  0  0  0
   89.5923  130.4801  125.4318 C   0  0  0  0  0
   89.5409  129.0578  124.8741 C   0  0  0  0  0
   91.5467  131.4621  121.7595 O   0  0  0  0  0
   88.6056  128.7955  120.6718 O   0  0  0  0  0
   92.1280  131.8696  119.5939 N   0  0  0  0  0
   89.7126  129.6918  122.5121 N   0  0  0  0  0
  2  3  1  0  0  0
  4  5  1  0  0  0
  5  7  1  0  0  0
  6  1  1  0  0  0
  8  9  1  0  0  0
  8 17  1  0  0  0
  9 26  1  0  0  0
 10 26  1  0  0  0
 10 11  1  0  0  0
 12 13  1  0  0  0
 14 15  1  0  0  0
 16 11  1  0  0  0
 17 27  1  0  0  0
 18 27  1  0  0  0
 18 19  1  0  0  0
 19 20  1  0  0  0
 20 21  1  0  0  0
 21 22  1  0  0  0
 22 23  1  0  0  0
 23 18  1  0  0  0
 26  4  1  0  0  0
  1  2  2  0  0  0
  3  4  2  0  0  0
  5  6  2  0  0  0
  7  8  2  0  0  0
  9 24  2  0  0  0
 11 12  2  0  0  0
 13 14  2  0  0  0
 15 16  2  0  0  0
 17 25  2  0  0  0
M  END
> <rmsd>
0.418451816

$$$$
CHEMBL3941829_5TGZ


 40 45  0  0  0  0  0  0  0  0999 V2000
   86.5537  132.4422  121.4322 C   0  0  0  0  0
   87.3857  131.2112  121.7149 C   0  0  0  0  0
   86.1277  131.0875  120.8869 C   0  0  0  0  0
   89.9214  131.2291  121.4074 C   0  0  0  0  0
   91.0709  131.1557  120.4918 C   0  0  0  0  0
   94.5660  131.2376  119.9178 C   0  0  0  0  0
   95.2341  132.1281  119.0662 C   0  0  0  0  0
   96.6216  132.2746  119.1365 C   0  0  0  0  0
   97.3631  131.5453  120.0730 C   0  0  0  0  0
   96.7018  130.6386  120.9102 C   0  0  0  0  0
   95.3123  130.4878  120.8471 C   0  0  0  0  0
   98.8591  131.6587  120.1049 C   0  0  0  0  0
   92.3742  130.9898  118.7334 C   0  0  0  0  0
   91.0431  131.0173  119.1123 C   0  0  0  0  0
   89.8449  130.7773  118.2457 C   0  0  0  0  0
   89.8547  131.6698  117.0156 C   0  0  0  0  0
   90.8109  131.1282  115.9657 C   0  0  0  0  0
   92.2391  131.5789  116.2383 C   0  0  0  0  0
   92.8760  130.8038  117.3551 C   0  0  0  0  0
   93.8969  129.9600  117.1503 C   0  0  0  0  0
   94.5885  129.6652  115.8812 C   0  0  0  0  0
   95.5320  128.6534  115.7515 C   0  0  0  0  0
   96.0997  128.5827  114.4708 C   0  0  0  0  0
   95.6006  129.5479  113.6103 C   0  0  0  0  0
   87.2974  130.5381  123.0494 C   0  0  0  0  0
   87.3607  131.2968  124.2248 C   0  0  0  0  0
   87.2879  130.6529  125.4606 C   0  0  0  0  0
   87.1582  129.2644  125.5127 C   0  0  0  0  0
   87.1039  128.5382  124.3206 C   0  0  0  0  0
   88.5899  131.0558  120.9087 N   0  0  0  0  0
   92.3510  131.2288  120.9084 N   0  0  0  0  0
   93.1356  131.1201  119.8463 N   0  0  0  0  0
   87.1740  129.1838  123.1245 N   0  0  0  0  0
   90.1208  131.4453  122.6348 O   0  0  0  0  0
   94.5530  129.3110  121.9077 Cl  0  0  0  0  0
   96.1052  129.7824  111.9517 Cl  0  0  0  0  0
   99.2461  132.9636  119.8561 F   0  0  0  0  0
   99.3475  131.2819  121.3446 F   0  0  0  0  0
   99.3996  130.8348  119.1365 F   0  0  0  0  0
   94.4723  130.4915  114.4167 S   0  0  0  0  0
  1  2  1  0  0  0
  2  3  1  0  0  0
  2 30  1  0  0  0
  2 25  1  0  0  0
  3  1  1  0  0  0
  4  5  1  0  0  0
  7  8  1  0  0  0
  9 10  1  0  0  0
 11 35  1  0  0  0
 11  6  1  0  0  0
 12  9  1  0  0  0
 12 37  1  0  0  0
 12 38  1  0  0  0
 12 39  1  0  0  0
 14  5  1  0  0  0
 15 14  1  0  0  0
 15 16  1  0  0  0
 16 17  1  0  0  0
 17 18  1  0  0  0
 18 19  1  0  0  0
 19 13  1  0  0  0
 20 21  1  0  0  0
 21 40  1  0  0  0
 22 23  1  0  0  0
 24 40  1  0  0  0
 24 36  1  0  0  0
 25 33  1  0  0  0
 26 27  1  0  0  0
 28 29  1  0  0  0
 30  4  1  0  0  0
 32 31  1  0  0  0
 32  6  1  0  0  0
 32 13  1  0  0  0
  4 34  2  0  0  0
  5 31  2  0  0  0
  6  7  2  0  0  0
  8  9  2  0  0  0
 10 11  2  0  0  0
 13 14  2  0  0  0
 19 20  2  0  0  0
 21 22  2  0  0  0
 23 24  2  0  0  0
 25 26  2  0  0  0
 27 28  2  0  0  0
 29 33  2  0  0  0
M  END
> <rmsd>
0.718489289

$$$$
CHEMBL1760665_5U09


 31 33  0  0  0  0  0  0  0  0999 V2000
   87.8690  130.1620  123.8017 C   0  0  0  0  0
   88.5818  129.7974  125.0901 C   0  0  0  0  0
   89.7793  128.9067  124.7988 C   0  0  0  0  0
   91.0017  129.7299  124.4224 C   0  0  0  0  0
   91.8266  129.8763  122.0419 C   0  0  0  0  0
   91.6396  130.3895  120.6713 C   0  0  0  0  0
   90.5273  131.1385  120.2741 C   0  0  0  0  0
   90.7599  131.3928  118.9372 C   0  0  0  0  0
   89.9867  132.1050  118.0236 C   0  0  0  0  0
   90.4681  132.2186  116.7066 C   0  0  0  0  0
   89.7066  132.9431  115.7293 C   0  0  0  0  0
   91.6959  131.6258  116.3404 C   0  0  0  0  0
   92.4556  130.9128  117.2843 C   0  0  0  0  0
   91.9504  130.8170  118.5821 C   0  0  0  0  0
   93.7958  129.5209  119.6634 C   0  0  0  0  0
   94.8929  130.5122  119.8613 C   0  0  0  0  0
   95.2311  130.9387  121.1497 C   0  0  0  0  0
   96.2403  131.8878  121.3302 C   0  0  0  0  0
   96.9089  132.4152  120.2220 C   0  0  0  0  0
   96.5707  131.9966  118.9243 C   0  0  0  0  0
   98.2578  133.4791  117.8326 C   0  0  0  0  0
   95.5594  131.0456  118.7532 C   0  0  0  0  0
   87.6959  129.1189  125.9252 O   0  0  0  0  0
   92.8066  129.1336  122.3192 O   0  0  0  0  0
   97.2168  132.5057  117.7904 O   0  0  0  0  0
   90.8804  130.2167  123.0572 N   0  0  0  0  0
   89.0924  133.5272  114.9413 N   0  0  0  0  0
   92.5007  130.1953  119.6370 N   0  0  0  0  0
   97.7950  134.6441  118.4177 F   0  0  0  0  0
   99.3344  132.9920  118.5520 F   0  0  0  0  0
   98.6683  133.7567  116.5431 F   0  0  0  0  0
  2  1  1  0  0  0
  2 23  1  0  0  0
  2  3  1  0  0  0
  3  4  1  0  0  0
  4 26  1  0  0  0
  5  6  1  0  0  0
  7  8  1  0  0  0
  9 10  1  0  0  0
 10 11  1  0  0  0
 12 13  1  0  0  0
 14 28  1  0  0  0
 14  8  1  0  0  0
 15 28  1  0  0  0
 15 16  1  0  0  0
 17 18  1  0  0  0
 19 20  1  0  0  0
 20 25  1  0  0  0
 21 25  1  0  0  0
 21 29  1  0  0  0
 21 30  1  0  0  0
 21 31  1  0  0  0
 22 16  1  0  0  0
 26  5  1  0  0  0
 28  6  1  0  0  0
  5 24  2  0  0  0
  6  7  2  0  0  0
  8  9  2  0  0  0
 10 12  2  0  0  0
 13 14  2  0  0  0
 16 17  2  0  0  0
 18 19  2  0  0  0
 20 22  2  0  0  0
 11 27  3  0  0  0
M  END
> <rmsd>
0.328968346

$$$$
CHEMBL3928040_6N4B


 37 41  0  0  0  0  0  0  0  0999 V2000
   88.9339  131.1847  123.8816 C   0  0  0  0  0
   89.7543  131.0001  121.4486 C   0  0  0  0  0
   90.9101  131.0084  120.5383 C   0  0  0  0  0
   94.4115  131.2047  120.0223 C   0  0  0  0  0
   95.0595  130.8037  121.1988 C   0  0  0  0  0
   96.4423  130.9526  121.3328 C   0  0  0  0  0
   97.1941  131.5122  120.2967 C   0  0  0  0  0
   96.5531  131.9286  119.1183 C   0  0  0  0  0
   95.1698  131.7787  118.9917 C   0  0  0  0  0
   92.2287  131.0079  118.7849 C   0  0  0  0  0
   90.8900  130.9611  119.1521 C   0  0  0  0  0
   89.6655  130.8550  118.2775 C   0  0  0  0  0
   89.9584  130.7472  116.7832 C   0  0  0  0  0
   90.7193  131.9772  116.3071 C   0  0  0  0  0
   92.2374  131.7790  116.3246 C   0  0  0  0  0
   92.7420  130.8613  117.4079 C   0  0  0  0  0
   93.5824  129.8467  117.1544 C   0  0  0  0  0
   94.2245  129.4855  115.8743 C   0  0  0  0  0
   94.9496  128.2899  115.8222 C   0  0  0  0  0
   95.5940  127.9010  114.6440 C   0  0  0  0  0
   95.5200  128.7107  113.5077 C   0  0  0  0  0
   94.8041  129.9096  113.5508 C   0  0  0  0  0
   94.1609  130.2961  114.7301 C   0  0  0  0  0
   88.3086  132.5463  123.8964 C   0  0  0  0  0
   87.4494  132.9666  122.8717 C   0  0  0  0  0
   86.8999  134.2482  122.9201 C   0  0  0  0  0
   87.2094  135.0968  123.9837 C   0  0  0  0  0
   88.0676  134.6457  124.9880 C   0  0  0  0  0
   87.9110  130.0631  123.7854 C   0  0  0  0  0
   89.9758  131.0699  122.8630 N   0  0  0  0  0
   92.1848  131.0761  120.9698 N   0  0  0  0  0
   92.9820  131.0753  119.9115 N   0  0  0  0  0
   88.5942  133.3931  124.9232 N   0  0  0  0  0
   88.5831  130.9277  120.9883 O   0  0  0  0  0
   97.4489  132.6303  117.7815 Cl  0  0  0  0  0
   98.9293  131.6791  120.5079 Cl  0  0  0  0  0
   96.1428  128.3338  112.3655 F   0  0  0  0  0
  1 30  1  0  0  0
  1 24  1  0  0  0
  1 29  1  0  0  0
  2  3  1  0  0  0
  5  6  1  0  0  0
  7  8  1  0  0  0
  7 36  1  0  0  0
  8 35  1  0  0  0
  9  4  1  0  0  0
 11  3  1  0  0  0
 12 11  1  0  0  0
 12 13  1  0  0  0
 13 14  1  0  0  0
 14 15  1  0  0  0
 15 16  1  0  0  0
 16 10  1  0  0  0
 17 18  1  0  0  0
 19 20  1  0  0  0
 21 22  1  0  0  0
 21 37  1  0  0  0
 23 18  1  0  0  0
 24 33  1  0  0  0
 25 26  1  0  0  0
 27 28  1  0  0  0
 30  2  1  0  0  0
 32 31  1  0  0  0
 32  4  1  0  0  0
 32 10  1  0  0  0
  2 34  2  0  0  0
  3 31  2  0  0  0
  4  5  2  0  0  0
  6  7  2  0  0  0
  8  9  2  0  0  0
 10 11  2  0  0  0
 16 17  2  0  0  0
 18 19  2  0  0  0
 20 21  2  0  0  0
 22 23  2  0  0  0
 24 25  2  0  0  0
 26 27  2  0  0  0
 28 33  2  0  0  0
M  END
> <rmsd>
0.566099524

$$$$
CHEMBL1760644_5U09


 35 38  0  0  0  0  0  0  0  0999 V2000
   89.1734  127.2129  125.8838 C   0  0  0  0  0
   89.1952  128.7325  125.9817 C   0  0  0  0  0
   89.1863  129.4177  124.6038 C   0  0  0  0  0
   90.4366  129.0367  123.8007 C   0  0  0  0  0
   91.5122  129.4885  121.5612 C   0  0  0  0  0
   91.4666  130.1715  120.2543 C   0  0  0  0  0
   90.3791  130.9377  119.8231 C   0  0  0  0  0
   90.7586  131.3743  118.5694 C   0  0  0  0  0
   90.0711  132.1827  117.6675 C   0  0  0  0  0
   90.7017  132.4852  116.4470 C   0  0  0  0  0
   90.0327  133.3143  115.4852 C   0  0  0  0  0
   91.9889  131.9799  116.1625 C   0  0  0  0  0
   92.6596  131.1664  117.0926 C   0  0  0  0  0
   92.0065  130.8829  118.2933 C   0  0  0  0  0
   93.7650  129.5079  119.4204 C   0  0  0  0  0
   94.7797  130.4940  119.8934 C   0  0  0  0  0
   95.5870  131.1627  118.9682 C   0  0  0  0  0
   96.5192  132.1065  119.4065 C   0  0  0  0  0
   96.6414  132.3860  120.7705 C   0  0  0  0  0
   95.8297  131.7229  121.7058 C   0  0  0  0  0
   96.8250  132.9185  123.6592 C   0  0  0  0  0
   94.8996  130.7794  121.2578 C   0  0  0  0  0
   87.9221  129.0343  123.8378 C   0  0  0  0  0
   87.0093  130.2396  123.8833 C   0  0  0  0  0
   87.9305  131.4280  124.0102 C   0  0  0  0  0
   89.1228  130.9306  124.8006 C   0  0  0  0  0
   90.3046  129.1313  126.7320 O   0  0  0  0  0
   92.4772  128.7330  121.8557 O   0  0  0  0  0
   95.9219  131.9795  123.0797 O   0  0  0  0  0
   90.4477  129.6814  122.4938 N   0  0  0  0  0
   89.4934  133.9830  114.7098 N   0  0  0  0  0
   92.4524  130.1399  119.3185 N   0  0  0  0  0
   98.1302  132.5625  123.3700 F   0  0  0  0  0
   96.5688  134.1872  123.1706 F   0  0  0  0  0
   96.6537  132.9223  125.0299 F   0  0  0  0  0
  2  1  1  0  0  0
  2 27  1  0  0  0
  2  3  1  0  0  0
  3  4  1  0  0  0
  3 23  1  0  0  0
  4 30  1  0  0  0
  5  6  1  0  0  0
  7  8  1  0  0  0
  9 10  1  0  0  0
 10 11  1  0  0  0
 12 13  1  0  0  0
 14 32  1  0  0  0
 14  8  1  0  0  0
 15 32  1  0  0  0
 15 16  1  0  0  0
 17 18  1  0  0  0
 19 20  1  0  0  0
 20 29  1  0  0  0
 21 29  1  0  0  0
 21 33  1  0  0  0
 21 34  1  0  0  0
 21 35  1  0  0  0
 22 16  1  0  0  0
 23 24  1  0  0  0
 24 25  1  0  0  0
 25 26  1  0  0  0
 26  3  1  0  0  0
 30  5  1  0  0  0
 32  6  1  0  0  0
  5 28  2  0  0  0
  6  7  2  0  0  0
  8  9  2  0  0  0
 10 12  2  0  0  0
 13 14  2  0  0  0
 16 17  2  0  0  0
 18 19  2  0  0  0
 20 22  2  0  0  0
 11 31  3  0  0  0
M  END
> <rmsd>
0.134564117

$$$$
CHEMBL524727_5TGZ


 32 36  0  0  0  0  0  0  0  0999 V2000
   90.9052  130.5955  120.7667 C   0  0  0  0  0
   92.1751  130.8964  121.2310 C   0  0  0  0  0
   92.9965  130.7891  120.1196 C   0  0  0  0  0
   92.6572  130.1221  117.7291 C   0  0  0  0  0
   93.7008  129.2031  117.5409 C   0  0  0  0  0
   94.1190  128.8581  116.2540 C   0  0  0  0  0
   93.4936  129.4250  115.1423 C   0  0  0  0  0
   92.4501  130.3366  115.3170 C   0  0  0  0  0
   92.0239  130.6853  116.6024 C   0  0  0  0  0
   94.4405  131.1163  120.0688 C   0  0  0  0  0
   94.9961  131.7225  118.9326 C   0  0  0  0  0
   96.3560  132.0419  118.8927 C   0  0  0  0  0
   97.1710  131.7624  119.9923 C   0  0  0  0  0
   96.6255  131.1672  121.1326 C   0  0  0  0  0
   95.2654  130.8477  121.1710 C   0  0  0  0  0
   92.5391  131.4513  122.5679 C   0  0  0  0  0
   89.6419  130.6362  121.5213 C   0  0  0  0  0
   87.5769  131.0717  122.0192 C   0  0  0  0  0
   88.0635  130.3337  123.2140 C   0  0  0  0  0
   90.4776  129.4480  123.6609 C   0  0  0  0  0
   91.0128  128.1806  123.0157 C   0  0  0  0  0
   90.0530  128.0836  124.1767 C   0  0  0  0  0
   87.2514  129.0661  123.4229 C   0  0  0  0  0
   88.0318  131.2159  124.4511 C   0  0  0  0  0
   92.2242  130.4405  119.0609 N   0  0  0  0  0
   90.9622  130.3293  119.4480 N   0  0  0  0  0
   88.5898  131.2069  121.0340 N   0  0  0  0  0
   89.4381  130.0361  122.8115 N   0  0  0  0  0
   90.7339  131.8667  116.7608 Cl  0  0  0  0  0
   94.0185  128.9952  113.5292 Cl  0  0  0  0  0
   98.8741  132.1616  119.9431 Cl  0  0  0  0  0
   86.4134  131.5331  121.8765 O   0  0  0  0  0
  1  2  1  0  0  0
  1 17  1  0  0  0
  3 25  1  0  0  0
  3 10  1  0  0  0
  5  6  1  0  0  0
  7  8  1  0  0  0
  7 30  1  0  0  0
  9 29  1  0  0  0
  9  4  1  0  0  0
 11 12  1  0  0  0
 13 14  1  0  0  0
 13 31  1  0  0  0
 15 10  1  0  0  0
 16  2  1  0  0  0
 18 27  1  0  0  0
 19 18  1  0  0  0
 19 28  1  0  0  0
 19 23  1  0  0  0
 19 24  1  0  0  0
 20 28  1  0  0  0
 20 21  1  0  0  0
 21 22  1  0  0  0
 22 20  1  0  0  0
 25 26  1  0  0  0
 25  4  1  0  0  0
 28 17  1  0  0  0
  1 26  2  0  0  0
  2  3  2  0  0  0
  4  5  2  0  0  0
  6  7  2  0  0  0
  8  9  2  0  0  0
 10 11  2  0  0  0
 12 13  2  0  0  0
 14 15  2  0  0  0
 17 27  2  0  0  0
 18 32  2  0  0  0
M  END
> <rmsd>
0.710913062

$$$$
CHEMBL4516360_6N4B


 27 30  0  0  0  0  0  0  0  0999 V2000
   87.7202  129.8032  124.9474 C   0  0  0  0  0
   88.6704  130.5255  124.0162 C   0  0  0  0  0
   88.8179  129.7350  122.7336 C   0  0  0  0  0
   89.7679  130.4576  121.8030 C   0  0  0  0  0
   89.9155  129.6651  120.5177 C   0  0  0  0  0
   92.1495  130.5301  119.8061 C   0  0  0  0  0
   92.6937  131.2025  118.7110 C   0  0  0  0  0
   91.6476  131.4085  117.8282 C   0  0  0  0  0
   90.5230  130.8766  118.4049 C   0  0  0  0  0
   89.2819  130.9213  117.7597 C   0  0  0  0  0
   89.2190  131.5313  116.4952 C   0  0  0  0  0
   90.3788  132.0770  115.9062 C   0  0  0  0  0
   91.6145  132.0195  116.5743 C   0  0  0  0  0
   94.1139  131.5746  118.5180 C   0  0  0  0  0
   95.1114  131.4599  119.6150 C   0  0  0  0  0
   94.7050  131.7361  120.9301 C   0  0  0  0  0
   95.6059  131.6733  121.9937 C   0  0  0  0  0
   96.9380  131.3349  121.7627 C   0  0  0  0  0
   97.3746  131.0564  120.4675 C   0  0  0  0  0
   98.7118  130.7110  120.2520 C   0  0  0  0  0
   99.1618  130.4168  118.9632 C   0  0  0  0  0
   98.2760  130.4641  117.8848 C   0  0  0  0  0
   96.9380  130.8094  118.0913 C   0  0  0  0  0
   96.4668  131.1168  119.3785 C   0  0  0  0  0
   90.8227  130.3487  119.6065 N   0  0  0  0  0
   88.1657  130.3988  118.3239 F   0  0  0  0  0
   94.4799  132.0108  117.3932 O   0  0  0  0  0
  1  2  1  0  0  0
  2  3  1  0  0  0
  3  4  1  0  0  0
  4  5  1  0  0  0
  5 25  1  0  0  0
  7  8  1  0  0  0
  7 14  1  0  0  0
  9 10  1  0  0  0
  9 25  1  0  0  0
 10 26  1  0  0  0
 11 12  1  0  0  0
 13  8  1  0  0  0
 14 15  1  0  0  0
 16 17  1  0  0  0
 18 19  1  0  0  0
 20 21  1  0  0  0
 22 23  1  0  0  0
 24 15  1  0  0  0
 24 19  1  0  0  0
 25  6  1  0  0  0
  6  7  2  0  0  0
  8  9  2  0  0  0
 10 11  2  0  0  0
 12 13  2  0  0  0
 14 27  2  0  0  0
 15 16  2  0  0  0
 17 18  2  0  0  0
 19 20  2  0  0  0
 21 22  2  0  0  0
 23 24  2  0  0  0
M  END
> <rmsd>
0.573392153

$$$$
CHEMBL4469157_6N4B


 30 33  0  0  0  0  0  0  0  0999 V2000
   97.7362  130.3127  125.9974 C   0  0  0  0  0
   97.1896  129.7041  124.7196 C   0  0  0  0  0
   97.5703  130.5553  123.5219 C   0  0  0  0  0
   96.7120  131.8084  123.4670 C   0  0  0  0  0
   97.0824  132.6486  122.2546 C   0  0  0  0  0
   95.3661  131.7715  120.6542 C   0  0  0  0  0
   95.3517  131.1431  119.4071 C   0  0  0  0  0
   96.6766  131.0122  119.0270 C   0  0  0  0  0
   97.2549  130.4686  117.8798 C   0  0  0  0  0
   98.6580  130.4821  117.7870 C   0  0  0  0  0
   99.4406  131.0297  118.8262 C   0  0  0  0  0
   98.8302  131.5709  119.9715 C   0  0  0  0  0
   97.4363  131.5434  120.0355 C   0  0  0  0  0
   94.1552  130.7403  118.6340 C   0  0  0  0  0
   92.7922  130.7689  119.2286 C   0  0  0  0  0
   92.6410  130.4057  120.5701 C   0  0  0  0  0
   91.3879  130.3833  121.1729 C   0  0  0  0  0
   90.2326  130.7190  120.4604 C   0  0  0  0  0
   90.3560  131.0924  119.0964 C   0  0  0  0  0
   89.2328  131.4502  118.3316 C   0  0  0  0  0
   89.3604  131.8290  116.9954 C   0  0  0  0  0
   90.6179  131.8596  116.3977 C   0  0  0  0  0
   91.7478  131.5079  117.1353 C   0  0  0  0  0
   91.6410  131.1151  118.4805 C   0  0  0  0  0
   88.9418  130.6620  121.1961 C   0  0  0  0  0
   87.7421  130.2187  123.3030 C   0  0  0  0  0
   96.6485  131.9988  121.0242 N   0  0  0  0  0
   94.3026  130.3514  117.4439 O   0  0  0  0  0
   87.8520  130.9393  120.6240 O   0  0  0  0  0
   88.9401  130.2927  122.5446 O   0  0  0  0  0
  1  2  1  0  0  0
  2  3  1  0  0  0
  3  4  1  0  0  0
  4  5  1  0  0  0
  5 27  1  0  0  0
  7  8  1  0  0  0
  7 14  1  0  0  0
  9 10  1  0  0  0
 11 12  1  0  0  0
 13 27  1  0  0  0
 13  8  1  0  0  0
 14 15  1  0  0  0
 16 17  1  0  0  0
 18 19  1  0  0  0
 18 25  1  0  0  0
 20 21  1  0  0  0
 22 23  1  0  0  0
 24 15  1  0  0  0
 24 19  1  0  0  0
 25 30  1  0  0  0
 26 30  1  0  0  0
 27  6  1  0  0  0
  6  7  2  0  0  0
  8  9  2  0  0  0
 10 11  2  0  0  0
 12 13  2  0  0  0
 14 28  2  0  0  0
 15 16  2  0  0  0
 17 18  2  0  0  0
 19 20  2  0  0  0
 21 22  2  0  0  0
 23 24  2  0  0  0
 25 29  2  0  0  0
M  END
> <rmsd>
0.71968019

$$$$
CHEMBL4474739_6N4B


 28 31  0  0  0  0  0  0  0  0999 V2000
   94.8735  133.9004  122.8158 C   0  0  0  0  0
   93.6908  133.7538  122.0878 C   0  0  0  0  0
   93.6498  132.9011  120.9820 C   0  0  0  0  0
   94.7886  132.1761  120.5937 C   0  0  0  0  0
   95.9892  132.3475  121.3290 C   0  0  0  0  0
   96.0212  133.2009  122.4357 C   0  0  0  0  0
   97.1513  131.6788  120.9422 C   0  0  0  0  0
   97.1390  130.8430  119.8260 C   0  0  0  0  0
   95.9619  130.6638  119.0972 C   0  0  0  0  0
   94.7750  131.3083  119.4738 C   0  0  0  0  0
   93.5625  131.0611  118.6604 C   0  0  0  0  0
   92.2628  130.7473  119.2891 C   0  0  0  0  0
   92.1024  130.1549  120.5425 C   0  0  0  0  0
   90.1133  130.4526  119.7217 C   0  0  0  0  0
   90.9846  130.9317  118.7744 C   0  0  0  0  0
   90.5165  131.5115  117.5881 C   0  0  0  0  0
   89.1268  131.5691  117.3856 C   0  0  0  0  0
   88.2392  131.0635  118.3570 C   0  0  0  0  0
   88.7293  130.4998  119.5464 C   0  0  0  0  0
   90.2156  129.4413  122.0108 C   0  0  0  0  0
   89.9786  130.5646  123.0063 C   0  0  0  0  0
   89.3066  130.0289  124.2608 C   0  0  0  0  0
   87.8418  129.6973  124.0061 C   0  0  0  0  0
   87.0124  130.9624  123.8609 C   0  0  0  0  0
   93.6657  131.0447  117.4050 O   0  0  0  0  0
   90.7849  129.9788  120.7850 N   0  0  0  0  0
   91.3535  132.0354  116.6616 F   0  0  0  0  0
   86.9608  131.6358  125.0676 F   0  0  0  0  0
  2  3  1  0  0  0
  4  5  1  0  0  0
  5  7  1  0  0  0
  6  1  1  0  0  0
  8  9  1  0  0  0
 10 11  1  0  0  0
 10  4  1  0  0  0
 11 12  1  0  0  0
 13 26  1  0  0  0
 15 16  1  0  0  0
 15 12  1  0  0  0
 16 27  1  0  0  0
 17 18  1  0  0  0
 19 14  1  0  0  0
 20 26  1  0  0  0
 20 21  1  0  0  0
 21 22  1  0  0  0
 22 23  1  0  0  0
 23 24  1  0  0  0
 24 28  1  0  0  0
 26 14  1  0  0  0
  1  2  2  0  0  0
  3  4  2  0  0  0
  5  6  2  0  0  0
  7  8  2  0  0  0
  9 10  2  0  0  0
 11 25  2  0  0  0
 12 13  2  0  0  0
 14 15  2  0  0  0
 16 17  2  0  0  0
 18 19  2  0  0  0
M  END
> <rmsd>
0.547162235

$$$$
CHEMBL4444832_6N4B


 31 34  0  0  0  0  0  0  0  0999 V2000
   99.8300  129.9469  120.9049 C   0  0  0  0  0
   99.8117  131.3086  120.2358 C   0  0  0  0  0
   98.8180  131.3226  119.0829 C   0  0  0  0  0
   97.4011  131.3735  119.5759 C   0  0  0  0  0
   96.9596  132.5193  120.2419 C   0  0  0  0  0
   95.6468  132.6129  120.6989 C   0  0  0  0  0
   94.7358  131.5700  120.4947 C   0  0  0  0  0
   95.1732  130.3907  119.8417 C   0  0  0  0  0
   94.3172  129.2906  119.6675 C   0  0  0  0  0
   94.7573  128.1354  119.0203 C   0  0  0  0  0
   96.0650  128.0580  118.5425 C   0  0  0  0  0
   96.9375  129.1328  118.7187 C   0  0  0  0  0
   96.5114  130.3011  119.3706 C   0  0  0  0  0
   93.3539  131.7556  120.9963 C   0  0  0  0  0
   92.1633  131.3238  120.2385 C   0  0  0  0  0
   91.0176  130.7813  120.8174 C   0  0  0  0  0
   90.6873  130.8214  118.6701 C   0  0  0  0  0
   91.9353  131.3599  118.8666 C   0  0  0  0  0
   92.6848  131.8588  117.7929 C   0  0  0  0  0
   92.1389  131.7550  116.5024 C   0  0  0  0  0
   90.8680  131.1782  116.3059 C   0  0  0  0  0
   90.1213  130.7089  117.3991 C   0  0  0  0  0
   88.8059  129.9086  120.0559 C   0  0  0  0  0
   87.7477  131.0051  120.0387 C   0  0  0  0  0
   87.8494  131.9105  121.2602 C   0  0  0  0  0
   87.2202  131.2627  122.4835 C   0  0  0  0  0
   88.2192  130.3611  123.1829 C   0  0  0  0  0
   93.1847  132.2935  122.1240 O   0  0  0  0  0
   90.1332  130.4707  119.8437 N   0  0  0  0  0
   93.8816  132.4667  117.9681 F   0  0  0  0  0
   87.6225  129.7807  124.2853 F   0  0  0  0  0
  1  2  1  0  0  0
  2  3  1  0  0  0
  3  4  1  0  0  0
  5  6  1  0  0  0
  7  8  1  0  0  0
  7 14  1  0  0  0
  9 10  1  0  0  0
 11 12  1  0  0  0
 13  4  1  0  0  0
 13  8  1  0  0  0
 14 15  1  0  0  0
 16 29  1  0  0  0
 18 19  1  0  0  0
 18 15  1  0  0  0
 19 30  1  0  0  0
 20 21  1  0  0  0
 22 17  1  0  0  0
 23 29  1  0  0  0
 23 24  1  0  0  0
 24 25  1  0  0  0
 25 26  1  0  0  0
 26 27  1  0  0  0
 27 31  1  0  0  0
 29 17  1  0  0  0
  4  5  2  0  0  0
  6  7  2  0  0  0
  8  9  2  0  0  0
 10 11  2  0  0  0
 12 13  2  0  0  0
 14 28  2  0  0  0
 15 16  2  0  0  0
 17 18  2  0  0  0
 19 20  2  0  0  0
 21 22  2  0  0  0
M  END
> <rmsd>
0.432765901

$$$$
CHEMBL3938215_5U09


 39 43  0  0  0  0  0  0  0  0999 V2000
   88.9261  132.3354  123.6005 C   0  0  0  0  0
   89.8098  131.7677  121.2915 C   0  0  0  0  0
   90.9705  131.4882  120.4307 C   0  0  0  0  0
   94.4720  131.2709  119.9811 C   0  0  0  0  0
   95.2162  132.0227  119.0605 C   0  0  0  0  0
   96.6073  132.0870  119.1566 C   0  0  0  0  0
   97.2765  131.4132  120.1855 C   0  0  0  0  0
   96.5376  130.6487  121.0977 C   0  0  0  0  0
   95.1439  130.5830  121.0105 C   0  0  0  0  0
   98.7758  131.4334  120.2537 C   0  0  0  0  0
   92.3058  130.9802  118.7555 C   0  0  0  0  0
   90.9604  131.1424  119.0862 C   0  0  0  0  0
   89.7251  130.9800  118.2373 C   0  0  0  0  0
   89.9828  130.6518  116.7749 C   0  0  0  0  0
   90.9610  131.6439  116.1782 C   0  0  0  0  0
   92.3462  131.0198  116.1326 C   0  0  0  0  0
   92.8648  130.5121  117.4572 C   0  0  0  0  0
   93.8681  129.6230  117.4995 C   0  0  0  0  0
   94.5971  129.0246  116.3666 C   0  0  0  0  0
   94.3811  129.2316  115.0061 C   0  0  0  0  0
   95.2627  128.5073  114.1917 C   0  0  0  0  0
   96.1592  127.7422  114.9223 C   0  0  0  0  0
   88.2093  131.0556  123.9050 C   0  0  0  0  0
   88.8923  129.9551  124.4421 C   0  0  0  0  0
   88.1922  128.7760  124.7017 C   0  0  0  0  0
   86.8265  128.7033  124.4242 C   0  0  0  0  0
   86.1794  129.8185  123.8878 C   0  0  0  0  0
   89.4674  132.9575  124.8744 C   0  0  0  0  0
   90.0200  132.1050  122.6655 N   0  0  0  0  0
   92.2390  131.5368  120.8768 N   0  0  0  0  0
   93.0402  131.2264  119.8702 N   0  0  0  0  0
   86.8775  130.9596  123.6411 N   0  0  0  0  0
   88.6396  131.7119  120.8258 O   0  0  0  0  0
   94.2828  129.5808  122.1676 Cl  0  0  0  0  0
   97.4022  126.7140  114.2436 Cl  0  0  0  0  0
   99.2813  130.3969  119.4913 F   0  0  0  0  0
   99.2021  131.2821  121.5620 F   0  0  0  0  0
   99.2649  132.6333  119.7667 F   0  0  0  0  0
   95.8737  127.9517  116.5620 S   0  0  0  0  0
  1 29  1  0  0  0
  1 23  1  0  0  0
  1 28  1  0  0  0
  2  3  1  0  0  0
  5  6  1  0  0  0
  7  8  1  0  0  0
  9 34  1  0  0  0
  9  4  1  0  0  0
 10  7  1  0  0  0
 10 36  1  0  0  0
 10 37  1  0  0  0
 10 38  1  0  0  0
 12  3  1  0  0  0
 13 12  1  0  0  0
 13 14  1  0  0  0
 14 15  1  0  0  0
 15 16  1  0  0  0
 16 17  1  0  0  0
 17 11  1  0  0  0
 18 19  1  0  0  0
 19 39  1  0  0  0
 20 21  1  0  0  0
 22 39  1  0  0  0
 22 35  1  0  0  0
 23 32  1  0  0  0
 24 25  1  0  0  0
 26 27  1  0  0  0
 29  2  1  0  0  0
 31 30  1  0  0  0
 31  4  1  0  0  0
 31 11  1  0  0  0
  2 33  2  0  0  0
  3 30  2  0  0  0
  4  5  2  0  0  0
  6  7  2  0  0  0
  8  9  2  0  0  0
 11 12  2  0  0  0
 17 18  2  0  0  0
 19 20  2  0  0  0
 21 22  2  0  0  0
 23 24  2  0  0  0
 25 26  2  0  0  0
 27 32  2  0  0  0
M  END
> <rmsd>
0.66228044

$$$$
CHEMBL4435655_6N4B


 27 30  0  0  0  0  0  0  0  0999 V2000
   87.7662  129.8956  124.7358 C   0  0  0  0  0
   88.7229  130.4328  123.6927 C   0  0  0  0  0
   87.9930  130.5941  122.3726 C   0  0  0  0  0
   88.9353  131.1262  121.3083 C   0  0  0  0  0
   89.8714  130.0267  120.8315 C   0  0  0  0  0
   92.1195  130.6665  119.9633 C   0  0  0  0  0
   92.6671  131.1688  118.7806 C   0  0  0  0  0
   91.6075  131.3274  117.9034 C   0  0  0  0  0
   90.4757  130.9367  118.5685 C   0  0  0  0  0
   89.2195  130.9613  117.9604 C   0  0  0  0  0
   89.1466  131.4105  116.6299 C   0  0  0  0  0
   90.3132  131.8158  115.9464 C   0  0  0  0  0
   91.5661  131.7763  116.5834 C   0  0  0  0  0
   94.0994  131.4277  118.5086 C   0  0  0  0  0
   95.1236  131.3838  119.5859 C   0  0  0  0  0
   94.7768  131.8394  120.8676 C   0  0  0  0  0
   95.7067  131.8490  121.9078 C   0  0  0  0  0
   97.0089  131.4045  121.6859 C   0  0  0  0  0
   97.3863  130.9471  120.4232 C   0  0  0  0  0
   98.6935  130.4972  120.2174 C   0  0  0  0  0
   99.0837  130.0242  118.9629 C   0  0  0  0  0
   98.1676  129.9966  117.9094 C   0  0  0  0  0
   96.8591  130.4452  118.1063 C   0  0  0  0  0
   96.4486  130.9325  119.3585 C   0  0  0  0  0
   90.7804  130.5425  119.8181 N   0  0  0  0  0
   87.9485  131.4537  115.9996 F   0  0  0  0  0
   94.4534  131.7035  117.3303 O   0  0  0  0  0
  1  2  1  0  0  0
  2  3  1  0  0  0
  3  4  1  0  0  0
  4  5  1  0  0  0
  5 25  1  0  0  0
  7  8  1  0  0  0
  7 14  1  0  0  0
  9 10  1  0  0  0
  9 25  1  0  0  0
 11 12  1  0  0  0
 11 26  1  0  0  0
 13  8  1  0  0  0
 14 15  1  0  0  0
 16 17  1  0  0  0
 18 19  1  0  0  0
 20 21  1  0  0  0
 22 23  1  0  0  0
 24 15  1  0  0  0
 24 19  1  0  0  0
 25  6  1  0  0  0
  6  7  2  0  0  0
  8  9  2  0  0  0
 10 11  2  0  0  0
 12 13  2  0  0  0
 14 27  2  0  0  0
 15 16  2  0  0  0
 17 18  2  0  0  0
 19 20  2  0  0  0
 21 22  2  0  0  0
 23 24  2  0  0  0
M  END
> <rmsd>
0.538176775

$$$$
CHEMBL4475213_6N4B


 29 32  0  0  0  0  0  0  0  0999 V2000
   88.3407  130.5161  124.2721 C   0  0  0  0  0
   87.8638  130.2221  122.8658 C   0  0  0  0  0
   88.3835  131.2905  121.9228 C   0  0  0  0  0
   87.9373  131.0054  120.4970 C   0  0  0  0  0
   88.7043  129.8306  119.9002 C   0  0  0  0  0
   91.1478  129.5970  120.3450 C   0  0  0  0  0
   92.3392  130.1575  119.8840 C   0  0  0  0  0
   91.9851  131.0807  118.9128 C   0  0  0  0  0
   92.7591  131.8848  118.0755 C   0  0  0  0  0
   92.0883  132.7040  117.1508 C   0  0  0  0  0
   90.6795  132.6934  117.0739 C   0  0  0  0  0
   89.9243  131.8606  117.9179 C   0  0  0  0  0
   90.6172  131.0631  118.8305 C   0  0  0  0  0
   93.6925  129.7628  120.3248 C   0  0  0  0  0
   94.8614  130.6594  120.1684 C   0  0  0  0  0
   94.7216  132.0016  120.5278 C   0  0  0  0  0
   95.7934  132.8828  120.4311 C   0  0  0  0  0
   97.0493  132.4594  119.9782 C   0  0  0  0  0
   97.2153  131.0967  119.6105 C   0  0  0  0  0
   98.4439  130.6072  119.1372 C   0  0  0  0  0
   98.5965  129.2707  118.7682 C   0  0  0  0  0
   97.5178  128.3948  118.8631 C   0  0  0  0  0
   96.2869  128.8549  119.3288 C   0  0  0  0  0
   96.1155  130.1961  119.7114 C   0  0  0  0  0
   98.1298  133.4841  119.9143 C   0  0  0  0  0
   90.1070  130.1736  119.7014 N   0  0  0  0  0
   99.4635  133.1513  119.5407 N   0  0  0  0  0
   93.8465  128.6410  120.8793 O   0  0  0  0  0
   97.8710  134.6833  120.2039 O   0  0  0  0  0
  1  2  1  0  0  0
  2  3  1  0  0  0
  3  4  1  0  0  0
  4  5  1  0  0  0
  5 26  1  0  0  0
  7  8  1  0  0  0
  7 14  1  0  0  0
  9 10  1  0  0  0
 11 12  1  0  0  0
 13 26  1  0  0  0
 13  8  1  0  0  0
 14 15  1  0  0  0
 16 17  1  0  0  0
 18 19  1  0  0  0
 18 25  1  0  0  0
 20 21  1  0  0  0
 22 23  1  0  0  0
 24 15  1  0  0  0
 24 19  1  0  0  0
 25 27  1  0  0  0
 26  6  1  0  0  0
  6  7  2  0  0  0
  8  9  2  0  0  0
 10 11  2  0  0  0
 12 13  2  0  0  0
 14 28  2  0  0  0
 15 16  2  0  0  0
 17 18  2  0  0  0
 19 20  2  0  0  0
 21 22  2  0  0  0
 23 24  2  0  0  0
 25 29  2  0  0  0
M  END
> <rmsd>
0.53314364

$$$$
CHEMBL3914978_6N4B


 31 35  0  0  0  0  0  0  0  0999 V2000
   92.6394  135.3546  126.1605 C   0  0  0  0  0
   91.5326  134.3643  126.0975 C   0  0  0  0  0
   90.0205  133.0996  125.4206 C   0  0  0  0  0
   88.9899  132.4319  124.5555 C   0  0  0  0  0
   88.5815  131.0712  125.1135 C   0  0  0  0  0
   87.3424  130.5541  124.4074 C   0  0  0  0  0
   86.9935  129.1913  124.9679 C   0  0  0  0  0
   87.6980  129.3004  123.6332 C   0  0  0  0  0
   90.5788  131.5242  122.7584 C   0  0  0  0  0
   90.9694  131.4848  121.3417 C   0  0  0  0  0
   92.4370  130.6588  119.6538 C   0  0  0  0  0
   91.7395  131.3793  118.6617 C   0  0  0  0  0
   90.6579  132.1780  119.0544 C   0  0  0  0  0
   90.2651  132.2277  120.3904 C   0  0  0  0  0
   92.1861  131.3794  117.2237 C   0  0  0  0  0
   91.0084  131.1902  116.2793 C   0  0  0  0  0
   91.9143  130.0230  116.5929 C   0  0  0  0  0
   93.6503  129.8471  119.3229 C   0  0  0  0  0
   94.8933  130.6249  119.5955 C   0  0  0  0  0
   95.4812  130.5830  120.8647 C   0  0  0  0  0
   96.6344  131.3284  121.1273 C   0  0  0  0  0
   97.1996  132.1187  120.1221 C   0  0  0  0  0
   96.6117  132.1639  118.8540 C   0  0  0  0  0
   95.4583  131.4191  118.5910 C   0  0  0  0  0
   90.9067  134.0096  124.9604 N   0  0  0  0  0
   90.0919  132.9428  126.7587 N   0  0  0  0  0
   89.4549  132.3130  123.1732 N   0  0  0  0  0
   92.0335  130.7313  120.9515 N   0  0  0  0  0
   91.0466  133.7363  127.1380 O   0  0  0  0  0
   91.2378  130.8631  123.6063 O   0  0  0  0  0
   98.3175  132.8399  120.3759 F   0  0  0  0  0
  1  2  1  0  0  0
  2 29  1  0  0  0
  3 25  1  0  0  0
  4  3  1  0  0  0
  4  5  1  0  0  0
  4 27  1  0  0  0
  5  6  1  0  0  0
  6  7  1  0  0  0
  7  8  1  0  0  0
  8  6  1  0  0  0
  9 10  1  0  0  0
 11 28  1  0  0  0
 12 13  1  0  0  0
 14 10  1  0  0  0
 15 12  1  0  0  0
 15 16  1  0  0  0
 16 17  1  0  0  0
 17 15  1  0  0  0
 18 11  1  0  0  0
 18 19  1  0  0  0
 20 21  1  0  0  0
 22 23  1  0  0  0
 22 31  1  0  0  0
 24 19  1  0  0  0
 26 29  1  0  0  0
 27  9  1  0  0  0
  2 25  2  0  0  0
  3 26  2  0  0  0
  9 30  2  0  0  0
 10 28  2  0  0  0
 11 12  2  0  0  0
 13 14  2  0  0  0
 19 20  2  0  0  0
 21 22  2  0  0  0
 23 24  2  0  0  0
M  END
> <rmsd>
0.823331833

$$$$
CHEMBL4459965_6N4B


 33 37  0  0  0  0  0  0  0  0999 V2000
   87.7409  130.2186  123.3019 C   0  0  0  0  0
   88.9411  130.6622  121.1956 C   0  0  0  0  0
   90.2321  130.7191  120.4602 C   0  0  0  0  0
   91.3872  130.3831  121.1728 C   0  0  0  0  0
   92.6405  130.4054  120.5703 C   0  0  0  0  0
   92.7920  130.7687  119.2289 C   0  0  0  0  0
   91.6410  131.1152  118.4806 C   0  0  0  0  0
   91.7482  131.5083  117.1354 C   0  0  0  0  0
   90.6186  131.8603  116.3978 C   0  0  0  0  0
   89.3609  131.8298  116.9951 C   0  0  0  0  0
   89.2330  131.4508  118.3312 C   0  0  0  0  0
   90.3559  131.0927  119.0962 C   0  0  0  0  0
   94.1550  130.7399  118.6344 C   0  0  0  0  0
   95.3515  131.1456  119.4060 C   0  0  0  0  0
   95.3665  131.7679  120.6564 C   0  0  0  0  0
   97.4366  131.5416  120.0354 C   0  0  0  0  0
   98.8309  131.5590  119.9763 C   0  0  0  0  0
   99.4413  131.0134  118.8331 C   0  0  0  0  0
   98.6582  130.4706  117.7917 C   0  0  0  0  0
   97.2547  130.4657  117.8805 C   0  0  0  0  0
   96.6766  131.0142  119.0254 C   0  0  0  0  0
   97.0751  132.5989  122.2775 C   0  0  0  0  0
   97.2761  131.5135  123.3212 C   0  0  0  0  0
   97.1859  131.2904  125.6489 C   0  0  0  0  0
   97.8133  131.7174  126.9788 C   0  0  0  0  0
   99.7233  132.3885  125.9642 C   0  0  0  0  0
   99.1968  131.9971  124.5809 C   0  0  0  0  0
   88.9391  130.2926  122.5438 O   0  0  0  0  0
   87.8516  130.9402  120.6233 O   0  0  0  0  0
   94.3024  130.3491  117.4448 O   0  0  0  0  0
   99.2050  131.5117  126.9358 O   0  0  0  0  0
   96.6481  132.0041  121.0206 N   0  0  0  0  0
   97.7361  132.1054  124.5653 N   0  0  0  0  0
  1 28  1  0  0  0
  2 28  1  0  0  0
  2  3  1  0  0  0
  4  5  1  0  0  0
  6  7  1  0  0  0
  6 13  1  0  0  0
  8  9  1  0  0  0
 10 11  1  0  0  0
 12  3  1  0  0  0
 12  7  1  0  0  0
 13 14  1  0  0  0
 15 32  1  0  0  0
 17 18  1  0  0  0
 19 20  1  0  0  0
 21 14  1  0  0  0
 21 16  1  0  0  0
 22 32  1  0  0  0
 22 23  1  0  0  0
 23 33  1  0  0  0
 24 33  1  0  0  0
 24 25  1  0  0  0
 25 31  1  0  0  0
 26 31  1  0  0  0
 26 27  1  0  0  0
 27 33  1  0  0  0
 32 16  1  0  0  0
  2 29  2  0  0  0
  3  4  2  0  0  0
  5  6  2  0  0  0
  7  8  2  0  0  0
  9 10  2  0  0  0
 11 12  2  0  0  0
 13 30  2  0  0  0
 14 15  2  0  0  0
 16 17  2  0  0  0
 18 19  2  0  0  0
 20 21  2  0  0  0
M  END
> <rmsd>
0.720000684

$$$$
CHEMBL3932852_6N4B


 40 44  0  0  0  0  0  0  0  0999 V2000
   88.9874  132.3108  123.6542 C   0  0  0  0  0
   89.8514  131.7975  121.3234 C   0  0  0  0  0
   91.0035  131.5358  120.4473 C   0  0  0  0  0
   94.5030  131.2771  119.9634 C   0  0  0  0  0
   95.1137  131.0171  121.1976 C   0  0  0  0  0
   96.5043  131.0584  121.3221 C   0  0  0  0  0
   97.3018  131.3685  120.2172 C   0  0  0  0  0
   96.6985  131.6503  118.9804 C   0  0  0  0  0
   95.3069  131.6120  118.8637 C   0  0  0  0  0
   92.3050  130.9908  118.7671 C   0  0  0  0  0
   90.9772  131.1833  119.1078 C   0  0  0  0  0
   89.7697  130.8606  118.2825 C   0  0  0  0  0
   89.8492  131.4906  116.9003 C   0  0  0  0  0
   90.7675  130.6875  115.9909 C   0  0  0  0  0
   92.2284  131.0599  116.2064 C   0  0  0  0  0
   92.7795  130.4653  117.4691 C   0  0  0  0  0
   93.6873  129.4773  117.4647 C   0  0  0  0  0
   94.3133  128.8053  116.3078 C   0  0  0  0  0
   93.9790  129.0971  114.9774 C   0  0  0  0  0
   94.6115  128.4306  113.9246 C   0  0  0  0  0
   95.5972  127.4694  114.1870 C   0  0  0  0  0
   95.9181  127.1638  115.5161 C   0  0  0  0  0
   95.2833  127.8320  116.5671 C   0  0  0  0  0
   96.2489  126.7161  113.0638 C   0  0  0  0  0
   88.2359  131.0393  123.9067 C   0  0  0  0  0
   88.8924  129.8930  124.3778 C   0  0  0  0  0
   88.1601  128.7243  124.5911 C   0  0  0  0  0
   86.7887  128.7070  124.3334 C   0  0  0  0  0
   86.1683  129.8669  123.8639 C   0  0  0  0  0
   89.5499  132.8610  124.9516 C   0  0  0  0  0
   90.0722  132.0915  122.7058 N   0  0  0  0  0
   92.2805  131.5802  120.8740 N   0  0  0  0  0
   93.0682  131.2585  119.8577 N   0  0  0  0  0
   86.8978  130.9973  123.6617 N   0  0  0  0  0
   88.6787  131.7653  120.8619 O   0  0  0  0  0
   97.6505  132.0509  117.5609 Cl  0  0  0  0  0
   99.0455  131.4048  120.4182 Cl  0  0  0  0  0
   95.6230  125.4934  112.9091 F   0  0  0  0  0
   97.5876  126.5069  113.3453 F   0  0  0  0  0
   96.1529  127.4252  111.8785 F   0  0  0  0  0
  1 31  1  0  0  0
  1 25  1  0  0  0
  1 30  1  0  0  0
  2  3  1  0  0  0
  5  6  1  0  0  0
  7  8  1  0  0  0
  7 37  1  0  0  0
  8 36  1  0  0  0
  9  4  1  0  0  0
 11  3  1  0  0  0
 12 11  1  0  0  0
 12 13  1  0  0  0
 13 14  1  0  0  0
 14 15  1  0  0  0
 15 16  1  0  0  0
 16 10  1  0  0  0
 17 18  1  0  0  0
 19 20  1  0  0  0
 21 22  1  0  0  0
 23 18  1  0  0  0
 24 21  1  0  0  0
 24 38  1  0  0  0
 24 39  1  0  0  0
 24 40  1  0  0  0
 25 34  1  0  0  0
 26 27  1  0  0  0
 28 29  1  0  0  0
 31  2  1  0  0  0
 33 32  1  0  0  0
 33  4  1  0  0  0
 33 10  1  0  0  0
  2 35  2  0  0  0
  3 32  2  0  0  0
  4  5  2  0  0  0
  6  7  2  0  0  0
  8  9  2  0  0  0
 10 11  2  0  0  0
 16 17  2  0  0  0
 18 19  2  0  0  0
 20 21  2  0  0  0
 22 23  2  0  0  0
 25 26  2  0  0  0
 27 28  2  0  0  0
 29 34  2  0  0  0
M  END
> <rmsd>
0.700089216

$$$$
CHEMBL3900808_6KQI


 35 39  0  0  0  0  0  0  0  0999 V2000
   88.7298  131.2120  122.9916 C   0  0  0  0  0
   87.4940  130.8570  123.5395 C   0  0  0  0  0
   87.3870  129.7160  124.3396 C   0  0  0  0  0
   88.5154  128.9312  124.5935 C   0  0  0  0  0
   89.7516  129.2858  124.0456 C   0  0  0  0  0
   89.8648  130.4242  123.2400 C   0  0  0  0  0
   91.2107  130.7877  122.6769 C   0  0  0  0  0
   91.2206  130.9334  121.1829 C   0  0  0  0  0
   90.7125  132.0827  120.5585 C   0  0  0  0  0
   90.7457  132.1971  119.1660 C   0  0  0  0  0
   91.2852  131.1650  118.3928 C   0  0  0  0  0
   91.7898  130.0177  119.0113 C   0  0  0  0  0
   91.7577  129.9029  120.4036 C   0  0  0  0  0
   91.9213  131.9114  123.3838 C   0  0  0  0  0
   93.3149  131.9724  123.2995 C   0  0  0  0  0
   94.0257  133.0283  123.8831 C   0  0  0  0  0
   93.3202  134.0189  124.6034 C   0  0  0  0  0
   91.9256  133.9682  124.6792 C   0  0  0  0  0
   91.2282  132.9261  124.0620 C   0  0  0  0  0
   95.3547  135.0925  125.1876 C   0  0  0  0  0
   96.0897  134.1460  124.4706 C   0  0  0  0  0
   95.4295  133.1205  123.7900 C   0  0  0  0  0
   95.9321  131.7602  121.6995 C   0  0  0  0  0
   95.1142  132.5267  120.8543 C   0  0  0  0  0
   94.8632  132.1101  119.5446 C   0  0  0  0  0
   95.4377  130.9248  119.0677 C   0  0  0  0  0
   96.2681  130.1691  119.9008 C   0  0  0  0  0
   96.5180  130.5884  121.2111 C   0  0  0  0  0
   91.3360  131.3123  116.6500 Cl  0  0  0  0  0
   95.1347  130.3802  117.4291 Cl  0  0  0  0  0
   85.8398  129.2712  125.0258 Cl  0  0  0  0  0
   93.9979  135.0164  125.2302 N   0  0  0  0  0
   96.2118  132.1778  123.0421 N   0  0  0  0  0
   95.9500  136.0210  125.7924 O   0  0  0  0  0
   94.0681  132.8623  118.7449 F   0  0  0  0  0
  2  3  1  0  0  0
  3 31  1  0  0  0
  4  5  1  0  0  0
  6  1  1  0  0  0
  7  6  1  0  0  0
  7  8  1  0  0  0
  7 14  1  0  0  0
  9 10  1  0  0  0
 11 12  1  0  0  0
 11 29  1  0  0  0
 13  8  1  0  0  0
 15 16  1  0  0  0
 17 18  1  0  0  0
 17 32  1  0  0  0
 19 14  1  0  0  0
 20 21  1  0  0  0
 22 33  1  0  0  0
 22 16  1  0  0  0
 24 25  1  0  0  0
 25 35  1  0  0  0
 26 27  1  0  0  0
 26 30  1  0  0  0
 28 23  1  0  0  0
 32 20  1  0  0  0
 33 23  1  0  0  0
  1  2  2  0  0  0
  3  4  2  0  0  0
  5  6  2  0  0  0
  8  9  2  0  0  0
 10 11  2  0  0  0
 12 13  2  0  0  0
 14 15  2  0  0  0
 16 17  2  0  0  0
 18 19  2  0  0  0
 20 34  2  0  0  0
 21 22  2  0  0  0
 23 24  2  0  0  0
 25 26  2  0  0  0
 27 28  2  0  0  0
M  END
> <rmsd>
0.509700954

$$$$
CHEMBL3260743_5TGZ


 38 42  0  0  0  0  0  0  0  0999 V2000
   88.8741  131.7045  114.1962 C   0  0  0  0  0
   89.2351  130.4352  114.9451 C   0  0  0  0  0
   91.7185  130.8408  117.4436 C   0  0  0  0  0
   92.9728  130.6984  118.0373 C   0  0  0  0  0
   94.0384  129.9243  117.3576 C   0  0  0  0  0
   94.7243  128.9085  118.0406 C   0  0  0  0  0
   95.7237  128.1739  117.3968 C   0  0  0  0  0
   96.0415  128.4463  116.0638 C   0  0  0  0  0
   95.3576  129.4502  115.3730 C   0  0  0  0  0
   94.3585  130.1853  116.0170 C   0  0  0  0  0
   93.1452  131.2949  119.3176 C   0  0  0  0  0
   94.4632  131.2844  119.9968 C   0  0  0  0  0
   95.6006  131.7792  119.3458 C   0  0  0  0  0
   96.8318  131.7626  120.0039 C   0  0  0  0  0
   95.8323  130.7914  121.9255 C   0  0  0  0  0
   94.5831  130.7901  121.3014 C   0  0  0  0  0
   92.0468  131.9612  119.9307 C   0  0  0  0  0
   89.6744  132.6679  119.9243 C   0  0  0  0  0
   89.2396  131.9592  121.1755 C   0  0  0  0  0
   89.4037  132.6136  122.3983 C   0  0  0  0  0
   89.0192  131.9932  123.5859 C   0  0  0  0  0
   88.4729  130.7070  123.5428 C   0  0  0  0  0
   88.0222  130.0390  124.8061 C   0  0  0  0  0
   88.6669  130.6722  121.1675 C   0  0  0  0  0
   88.4389  129.9235  119.9002 C   0  0  0  0  0
   89.6947  131.4142  117.2159 C   0  0  0  0  0
   90.0609  130.7495  116.1016 N   0  0  0  0  0
   91.3284  130.3745  116.2344 N   0  0  0  0  0
   96.9221  131.2726  121.2693 N   0  0  0  0  0
   90.8277  132.0103  119.2996 N   0  0  0  0  0
   88.3002  130.0899  122.3412 N   0  0  0  0  0
   90.7247  131.4787  118.0783 N   0  0  0  0  0
   97.2935  127.5271  115.2578 Cl  0  0  0  0  0
   92.2016  132.5267  121.0492 O   0  0  0  0  0
   88.5491  131.9020  117.4140 O   0  0  0  0  0
   88.9842  130.1872  125.7894 F   0  0  0  0  0
   86.8412  130.6159  125.2347 F   0  0  0  0  0
   87.8119  128.6886  124.5891 F   0  0  0  0  0
  1  2  1  0  0  0
  2 27  1  0  0  0
  3  4  1  0  0  0
  4  5  1  0  0  0
  6  7  1  0  0  0
  8 33  1  0  0  0
  8  9  1  0  0  0
 10  5  1  0  0  0
 11 12  1  0  0  0
 11 17  1  0  0  0
 13 14  1  0  0  0
 15 29  1  0  0  0
 16 12  1  0  0  0
 17 30  1  0  0  0
 18 30  1  0  0  0
 18 19  1  0  0  0
 20 21  1  0  0  0
 22 31  1  0  0  0
 23 22  1  0  0  0
 23 36  1  0  0  0
 23 37  1  0  0  0
 23 38  1  0  0  0
 24 19  1  0  0  0
 25 24  1  0  0  0
 26 27  1  0  0  0
 27 28  1  0  0  0
 30 32  1  0  0  0
 32 26  1  0  0  0
 32  3  1  0  0  0
  3 28  2  0  0  0
  4 11  2  0  0  0
  5  6  2  0  0  0
  7  8  2  0  0  0
  9 10  2  0  0  0
 12 13  2  0  0  0
 14 29  2  0  0  0
 15 16  2  0  0  0
 17 34  2  0  0  0
 19 20  2  0  0  0
 21 22  2  0  0  0
 24 31  2  0  0  0
 26 35  2  0  0  0
M  END
> <rmsd>
0.813831806

$$$$
CHEMBL5266788_5TGZ


 31 35  0  0  0  0  0  0  0  0999 V2000
   92.4662  130.9533  122.3993 C   0  0  0  0  0
   92.0415  130.8047  120.9757 C   0  0  0  0  0
   92.8350  130.8968  119.8392 C   0  0  0  0  0
   90.7718  130.5022  120.5063 C   0  0  0  0  0
   89.5476  130.2946  121.2969 C   0  0  0  0  0
   88.4257  130.2164  123.6017 C   0  0  0  0  0
   87.8537  128.7941  123.4437 C   0  0  0  0  0
   86.6506  128.6032  124.3805 C   0  0  0  0  0
   87.1064  128.8082  125.8341 C   0  0  0  0  0
   87.6765  130.2248  126.0106 C   0  0  0  0  0
   88.8713  130.4120  125.0609 C   0  0  0  0  0
   86.5883  131.2538  125.6645 C   0  0  0  0  0
   86.1294  131.0633  124.2099 C   0  0  0  0  0
   85.5698  129.6416  124.0365 C   0  0  0  0  0
   87.3330  131.2523  123.2733 C   0  0  0  0  0
   92.4105  130.7267  117.3577 C   0  0  0  0  0
   92.3370  132.1645  116.8552 C   0  0  0  0  0
   90.9046  132.6759  116.8341 C   0  0  0  0  0
   90.1162  132.0105  115.7188 C   0  0  0  0  0
   88.6673  132.4577  115.7646 C   0  0  0  0  0
   94.2889  131.2042  119.7918 C   0  0  0  0  0
   95.0652  130.8335  118.6833 C   0  0  0  0  0
   96.4328  131.1192  118.6419 C   0  0  0  0  0
   97.0406  131.7787  119.7125 C   0  0  0  0  0
   96.2805  132.1509  120.8234 C   0  0  0  0  0
   94.9131  131.8641  120.8619 C   0  0  0  0  0
   92.0429  130.6550  118.7666 N   0  0  0  0  0
   90.8009  130.4243  119.1621 N   0  0  0  0  0
   89.5791  130.4000  122.7262 N   0  0  0  0  0
   88.4681  130.0243  120.7044 O   0  0  0  0  0
   88.0346  131.9099  116.8812 O   0  0  0  0  0
  1  2  1  0  0  0
  3 27  1  0  0  0
  3 21  1  0  0  0
  4  5  1  0  0  0
  4  2  1  0  0  0
  5 29  1  0  0  0
  6 29  1  0  0  0
  6  7  1  0  0  0
  7  8  1  0  0  0
  8  9  1  0  0  0
  9 10  1  0  0  0
 10 11  1  0  0  0
 10 12  1  0  0  0
 11  6  1  0  0  0
 12 13  1  0  0  0
 13 14  1  0  0  0
 13 15  1  0  0  0
 14  8  1  0  0  0
 15  6  1  0  0  0
 16 27  1  0  0  0
 16 17  1  0  0  0
 17 18  1  0  0  0
 18 19  1  0  0  0
 19 20  1  0  0  0
 20 31  1  0  0  0
 22 23  1  0  0  0
 24 25  1  0  0  0
 26 21  1  0  0  0
 27 28  1  0  0  0
  2  3  2  0  0  0
  4 28  2  0  0  0
  5 30  2  0  0  0
 21 22  2  0  0  0
 23 24  2  0  0  0
 25 26  2  0  0  0
M  END
> <rmsd>
0.680823863

$$$$
CHEMBL4519883_6N4B


 27 30  0  0  0  0  0  0  0  0999 V2000
   87.0895  129.5787  126.0981 C   0  0  0  0  0
   88.5298  129.5650  125.6223 C   0  0  0  0  0
   88.8138  130.7809  124.7538 C   0  0  0  0  0
   88.1823  130.6388  123.3743 C   0  0  0  0  0
   88.9197  129.6098  122.5254 C   0  0  0  0  0
   91.2671  130.4775  122.7013 C   0  0  0  0  0
   92.2510  130.9488  121.8323 C   0  0  0  0  0
   91.6947  130.9207  120.5635 C   0  0  0  0  0
   90.4229  130.4293  120.6999 C   0  0  0  0  0
   89.5685  130.2836  119.6059 C   0  0  0  0  0
   90.0546  130.6660  118.3433 C   0  0  0  0  0
   91.3595  131.1848  118.2033 C   0  0  0  0  0
   92.1954  131.3231  119.3251 C   0  0  0  0  0
   93.5875  131.4281  122.2388 C   0  0  0  0  0
   94.7292  131.4645  121.2961 C   0  0  0  0  0
   94.9501  130.3567  120.4641 C   0  0  0  0  0
   96.0293  130.3264  119.5794 C   0  0  0  0  0
   96.9126  131.4036  119.5156 C   0  0  0  0  0
   96.7212  132.5156  120.3367 C   0  0  0  0  0
   97.6110  133.5908  120.2609 C   0  0  0  0  0
   97.4253  134.7135  121.0709 C   0  0  0  0  0
   96.3479  134.7668  121.9583 C   0  0  0  0  0
   95.4537  133.6962  122.0408 C   0  0  0  0  0
   95.6280  132.5562  121.2392 C   0  0  0  0  0
   90.1575  130.1644  121.9907 N   0  0  0  0  0
   91.8089  131.5549  116.9804 F   0  0  0  0  0
   93.7643  131.7878  123.4341 O   0  0  0  0  0
  1  2  1  0  0  0
  2  3  1  0  0  0
  3  4  1  0  0  0
  4  5  1  0  0  0
  5 25  1  0  0  0
  7  8  1  0  0  0
  7 14  1  0  0  0
  9 10  1  0  0  0
  9 25  1  0  0  0
 11 12  1  0  0  0
 12 26  1  0  0  0
 13  8  1  0  0  0
 14 15  1  0  0  0
 16 17  1  0  0  0
 18 19  1  0  0  0
 20 21  1  0  0  0
 22 23  1  0  0  0
 24 15  1  0  0  0
 24 19  1  0  0  0
 25  6  1  0  0  0
  6  7  2  0  0  0
  8  9  2  0  0  0
 10 11  2  0  0  0
 12 13  2  0  0  0
 14 27  2  0  0  0
 15 16  2  0  0  0
 17 18  2  0  0  0
 19 20  2  0  0  0
 21 22  2  0  0  0
 23 24  2  0  0  0
M  END
> <rmsd>
0.472246677

$$$$
CHEMBL4856192_6N4B


 27 30  0  0  0  0  0  0  0  0999 V2000
   86.9944  130.4086  123.8237 C   0  0  0  0  0
   88.4373  130.2383  123.3876 C   0  0  0  0  0
   88.8152  131.3069  122.3733 C   0  0  0  0  0
   88.1950  131.0245  121.0102 C   0  0  0  0  0
   88.8761  129.8452  120.3253 C   0  0  0  0  0
   91.3561  129.6046  120.4457 C   0  0  0  0  0
   92.4778  130.1600  119.8303 C   0  0  0  0  0
   92.0018  131.0779  118.9076 C   0  0  0  0  0
   92.6603  131.8619  117.9597 C   0  0  0  0  0
   91.8755  132.6735  117.1220 C   0  0  0  0  0
   90.4691  132.6727  117.2358 C   0  0  0  0  0
   89.8298  131.8560  118.1849 C   0  0  0  0  0
   90.6352  131.0668  119.0081 C   0  0  0  0  0
   93.8741  129.7487  120.0794 C   0  0  0  0  0
   95.0099  130.6886  119.9764 C   0  0  0  0  0
   96.3091  130.1928  119.7564 C   0  0  0  0  0
   97.3735  131.0916  119.6929 C   0  0  0  0  0
   97.1777  132.4376  119.8509 C   0  0  0  0  0
   98.4394  133.2004  119.7505 C   0  0  0  0  0
   99.5028  132.1208  119.4966 C   0  0  0  0  0
   98.7950  130.7574  119.4653 C   0  0  0  0  0
  100.5312  132.1405  120.6093 C   0  0  0  0  0
  100.1864  132.3753  118.1683 C   0  0  0  0  0
   95.9076  132.9610  120.0869 C   0  0  0  0  0
   94.8215  132.0760  120.1534 C   0  0  0  0  0
   90.2414  130.1843  119.9444 N   0  0  0  0  0
   94.0974  128.5540  120.4152 O   0  0  0  0  0
  1  2  1  0  0  0
  2  3  1  0  0  0
  3  4  1  0  0  0
  4  5  1  0  0  0
  5 26  1  0  0  0
  7  8  1  0  0  0
  7 14  1  0  0  0
  9 10  1  0  0  0
 11 12  1  0  0  0
 13 26  1  0  0  0
 13  8  1  0  0  0
 14 15  1  0  0  0
 16 17  1  0  0  0
 18 24  1  0  0  0
 19 18  1  0  0  0
 19 20  1  0  0  0
 20 21  1  0  0  0
 20 22  1  0  0  0
 20 23  1  0  0  0
 21 17  1  0  0  0
 25 15  1  0  0  0
 26  6  1  0  0  0
  6  7  2  0  0  0
  8  9  2  0  0  0
 10 11  2  0  0  0
 12 13  2  0  0  0
 14 27  2  0  0  0
 15 16  2  0  0  0
 17 18  2  0  0  0
 24 25  2  0  0  0
M  END
> <rmsd>
0.618326306

$$$$
CHEMBL3260746_5U09


 41 45  0  0  0  0  0  0  0  0999 V2000
   90.6809  131.4226  118.4679 C   0  0  0  0  0
   90.1750  131.5836  119.7577 C   0  0  0  0  0
   90.9816  131.1002  120.8257 C   0  0  0  0  0
   92.2499  130.5225  120.5362 C   0  0  0  0  0
   92.0300  130.8884  116.9279 C   0  0  0  0  0
   90.7354  131.6836  114.9325 C   0  0  0  0  0
   91.2104  133.0784  114.5740 C   0  0  0  0  0
   94.0139  129.8870  118.9200 C   0  0  0  0  0
   95.1284  130.7209  119.4850 C   0  0  0  0  0
   95.4266  132.0173  119.0212 C   0  0  0  0  0
   97.2037  132.2090  120.5977 C   0  0  0  0  0
   96.9487  130.9175  121.0686 C   0  0  0  0  0
   95.9071  130.1787  120.5099 C   0  0  0  0  0
   98.3412  133.0041  121.1628 C   0  0  0  0  0
   94.6553  132.6510  117.9155 C   0  0  0  0  0
   90.4984  131.1369  122.2271 C   0  0  0  0  0
   89.2624  130.5682  122.5649 C   0  0  0  0  0
   88.7975  130.6045  123.8825 C   0  0  0  0  0
   89.5806  131.2135  124.8818 C   0  0  0  0  0
   90.8168  131.7743  124.5467 C   0  0  0  0  0
   91.2744  131.7363  123.2277 C   0  0  0  0  0
   89.1410  131.2746  126.2523 C   0  0  0  0  0
   87.4719  129.9921  124.1886 C   0  0  0  0  0
   88.8756  132.2634  119.9720 C   0  0  0  0  0
   87.7414  131.8681  119.2475 C   0  0  0  0  0
   86.5163  132.5106  119.4471 C   0  0  0  0  0
   86.4174  133.5551  120.3701 C   0  0  0  0  0
   87.5439  133.9609  121.0902 C   0  0  0  0  0
   88.7690  133.3192  120.8902 C   0  0  0  0  0
   92.9553  130.0560  121.4740 O   0  0  0  0  0
   93.0307  130.4516  116.2980 O   0  0  0  0  0
   92.6975  130.4507  119.2395 N   0  0  0  0  0
   91.8865  130.8721  118.2650 N   0  0  0  0  0
   90.9451  131.4394  116.3505 N   0  0  0  0  0
   90.0914  131.7905  117.3064 N   0  0  0  0  0
   96.4492  132.7162  119.5840 N   0  0  0  0  0
   88.7879  131.3238  127.3533 N   0  0  0  0  0
   98.3369  132.9212  122.5439 F   0  0  0  0  0
   99.5361  132.5030  120.6809 F   0  0  0  0  0
   98.2292  134.3338  120.7964 F   0  0  0  0  0
   84.8829  134.3577  120.6217 Cl  0  0  0  0  0
  1  2  1  0  0  0
  2 24  1  0  0  0
  3  4  1  0  0  0
  3 16  1  0  0  0
  4 32  1  0  0  0
  5 34  1  0  0  0
  6 34  1  0  0  0
  6  7  1  0  0  0
  8 32  1  0  0  0
  8  9  1  0  0  0
 10 36  1  0  0  0
 11 12  1  0  0  0
 13  9  1  0  0  0
 14 11  1  0  0  0
 14 38  1  0  0  0
 14 39  1  0  0  0
 14 40  1  0  0  0
 15 10  1  0  0  0
 17 18  1  0  0  0
 19 20  1  0  0  0
 19 22  1  0  0  0
 21 16  1  0  0  0
 23 18  1  0  0  0
 25 26  1  0  0  0
 27 28  1  0  0  0
 27 41  1  0  0  0
 29 24  1  0  0  0
 32 33  1  0  0  0
 33  5  1  0  0  0
 33  1  1  0  0  0
 34 35  1  0  0  0
  1 35  2  0  0  0
  2  3  2  0  0  0
  4 30  2  0  0  0
  5 31  2  0  0  0
  9 10  2  0  0  0
 11 36  2  0  0  0
 12 13  2  0  0  0
 16 17  2  0  0  0
 18 19  2  0  0  0
 20 21  2  0  0  0
 24 25  2  0  0  0
 26 27  2  0  0  0
 28 29  2  0  0  0
 22 37  3  0  0  0
M  END
> <rmsd>
0.448893577

$$$$
CHEMBL5173419_6N4B


 34 38  0  0  0  0  0  0  0  0999 V2000
   92.2102  130.6500  120.0390 N   0  0  0  0  0
   92.4678  129.8989  117.7972 N   0  0  0  0  0
   89.2391  132.5371  122.7992 N   0  0  0  0  0
   91.8264  130.6679  118.7235 C   0  0  0  0  0
   90.7620  131.4929  118.3115 C   0  0  0  0  0
   90.3855  131.5163  116.9693 C   0  0  0  0  0
   91.0621  130.7208  116.0402 C   0  0  0  0  0
   92.1128  129.9082  116.4844 C   0  0  0  0  0
   90.6686  130.7424  114.6227 C   0  0  0  0  0
   89.5967  131.2753  112.8558 C   0  0  0  0  0
   90.5548  130.3546  112.4684 C   0  0  0  0  0
   91.2527  130.0061  113.6112 C   0  0  0  0  0
   90.0926  132.2706  119.2471 C   0  0  0  0  0
   90.4682  132.2288  120.5901 C   0  0  0  0  0
   91.5577  131.4174  120.9713 C   0  0  0  0  0
   89.7262  133.0634  121.5586 C   0  0  0  0  0
   89.1852  131.1168  123.1145 C   0  0  0  0  0
   88.8882  130.9359  124.5982 C   0  0  0  0  0
   88.8483  129.4486  124.9493 C   0  0  0  0  0
   87.8222  128.6951  124.0974 C   0  0  0  0  0
   88.0507  128.9432  122.6035 C   0  0  0  0  0
   88.0995  130.4369  122.2834 C   0  0  0  0  0
   86.4016  129.0525  124.5035 C   0  0  0  0  0
   93.3439  129.8186  120.4530 C   0  0  0  0  0
   94.6228  130.5828  120.3478 C   0  0  0  0  0
   95.3480  130.5747  119.1509 C   0  0  0  0  0
   96.5334  131.3082  119.0448 C   0  0  0  0  0
   96.9937  132.0542  120.1340 C   0  0  0  0  0
   96.2682  132.0672  121.3293 C   0  0  0  0  0
   95.0829  131.3335  121.4355 C   0  0  0  0  0
   89.6968  131.4798  114.1469 O   0  0  0  0  0
   91.9463  131.4154  122.1730 O   0  0  0  0  0
   89.4850  134.2661  121.2735 O   0  0  0  0  0
   97.2341  131.2980  117.8858 F   0  0  0  0  0
  1  4  1  0  0  0
  4  5  1  0  0  0
  5 13  1  0  0  0
  6  7  1  0  0  0
  7  9  1  0  0  0
  8  2  1  0  0  0
  9 31  1  0  0  0
 10 31  1  0  0  0
 11 12  1  0  0  0
 14 15  1  0  0  0
 14 16  1  0  0  0
 15  1  1  0  0  0
 16  3  1  0  0  0
 17  3  1  0  0  0
 17 18  1  0  0  0
 18 19  1  0  0  0
 19 20  1  0  0  0
 20 21  1  0  0  0
 20 23  1  0  0  0
 21 22  1  0  0  0
 22 17  1  0  0  0
 24  1  1  0  0  0
 24 25  1  0  0  0
 26 27  1  0  0  0
 27 34  1  0  0  0
 28 29  1  0  0  0
 30 25  1  0  0  0
  4  2  2  0  0  0
  5  6  2  0  0  0
  7  8  2  0  0  0
 10 11  2  0  0  0
 12  9  2  0  0  0
 13 14  2  0  0  0
 15 32  2  0  0  0
 16 33  2  0  0  0
 25 26  2  0  0  0
 27 28  2  0  0  0
 29 30  2  0  0  0
M  END
> <rmsd>
0.623073936

$$$$
CHEMBL4860950_6N4B


 27 30  0  0  0  0  0  0  0  0999 V2000
   87.9531  129.9791  124.8121 C   0  0  0  0  0
   89.0274  130.1799  123.7645 C   0  0  0  0  0
   88.7423  129.2882  122.5708 C   0  0  0  0  0
   89.8045  129.4772  121.5033 C   0  0  0  0  0
   89.5877  130.7894  120.7664 C   0  0  0  0  0
   91.9401  131.1702  119.9987 C   0  0  0  0  0
   92.6109  131.3358  118.7846 C   0  0  0  0  0
   91.6420  131.2530  117.7982 C   0  0  0  0  0
   91.7326  131.3554  116.4098 C   0  0  0  0  0
   90.5460  131.2263  115.6665 C   0  0  0  0  0
   89.3133  131.0017  116.3162 C   0  0  0  0  0
   89.2516  130.9030  117.7175 C   0  0  0  0  0
   90.4455  131.0342  118.4283 C   0  0  0  0  0
   94.0570  131.5980  118.5950 C   0  0  0  0  0
   95.0385  131.4775  119.7047 C   0  0  0  0  0
   94.7753  130.6360  120.8031 C   0  0  0  0  0
   95.7041  130.4969  121.8463 C   0  0  0  0  0
   96.9164  131.1956  121.8068 C   0  0  0  0  0
   97.1748  132.0220  120.7153 C   0  0  0  0  0
   96.2710  132.1615  119.6897 C   0  0  0  0  0
   96.7677  133.1121  118.6629 C   0  0  0  0  0
   98.1444  133.5487  119.1802 C   0  0  0  0  0
   98.3915  132.8368  120.5154 C   0  0  0  0  0
   98.1639  135.0498  119.3858 C   0  0  0  0  0
   99.2159  133.1575  118.1827 C   0  0  0  0  0
   90.6216  130.9772  119.7589 N   0  0  0  0  0
   94.4632  131.9305  117.4487 O   0  0  0  0  0
  1  2  1  0  0  0
  2  3  1  0  0  0
  3  4  1  0  0  0
  4  5  1  0  0  0
  5 26  1  0  0  0
  7  8  1  0  0  0
  7 14  1  0  0  0
  9 10  1  0  0  0
 11 12  1  0  0  0
 13 26  1  0  0  0
 13  8  1  0  0  0
 14 15  1  0  0  0
 16 17  1  0  0  0
 18 19  1  0  0  0
 20 15  1  0  0  0
 21 20  1  0  0  0
 21 22  1  0  0  0
 22 23  1  0  0  0
 22 24  1  0  0  0
 22 25  1  0  0  0
 23 19  1  0  0  0
 26  6  1  0  0  0
  6  7  2  0  0  0
  8  9  2  0  0  0
 10 11  2  0  0  0
 12 13  2  0  0  0
 14 27  2  0  0  0
 15 16  2  0  0  0
 17 18  2  0  0  0
 19 20  2  0  0  0
M  END
> <rmsd>
0.612890422

$$$$
CHEMBL5186632_6N4B


 32 37  0  0  0  0  0  0  0  0999 V2000
   91.4612  132.2522  115.7088 C   0  0  0  0  0
   90.5704  132.2251  116.7824 C   0  0  0  0  0
   90.9175  131.5490  117.9520 C   0  0  0  0  0
   92.1642  130.9019  118.0402 C   0  0  0  0  0
   92.6900  131.5987  115.8235 C   0  0  0  0  0
   91.6531  130.1827  120.2578 C   0  0  0  0  0
   90.3932  130.8262  120.2004 C   0  0  0  0  0
   90.0452  131.5075  119.0303 C   0  0  0  0  0
   89.4221  130.8137  121.3239 C   0  0  0  0  0
   88.8476  130.0883  123.7182 C   0  0  0  0  0
   88.5412  131.5066  124.2374 C   0  0  0  0  0
   87.6237  131.4303  125.4678 C   0  0  0  0  0
   88.3285  130.6271  126.5727 C   0  0  0  0  0
   88.6383  129.2069  126.0727 C   0  0  0  0  0
   89.5457  129.2925  124.8342 C   0  0  0  0  0
   87.3237  128.5083  125.6901 C   0  0  0  0  0
   86.6129  129.2990  124.5800 C   0  0  0  0  0
   87.5311  129.3767  123.3502 C   0  0  0  0  0
   86.3148  130.7217  125.0816 C   0  0  0  0  0
   93.8215  129.5872  119.2774 C   0  0  0  0  0
   94.8395  130.5289  119.8321 C   0  0  0  0  0
   95.5718  131.3559  118.9729 C   0  0  0  0  0
   96.5089  132.2531  119.4939 C   0  0  0  0  0
   96.7129  132.3271  120.8752 C   0  0  0  0  0
   95.9784  131.5055  121.7357 C   0  0  0  0  0
   95.0412  130.6083  121.2146 C   0  0  0  0  0
   93.0123  130.9445  116.9719 N   0  0  0  0  0
   92.5114  130.2382  119.1872 N   0  0  0  0  0
   89.7320  130.1520  122.5587 N   0  0  0  0  0
   91.9927  129.5501  121.2962 O   0  0  0  0  0
   88.3102  131.3956  121.1905 O   0  0  0  0  0
   97.6208  133.1963  121.3799 F   0  0  0  0  0
  2  3  1  0  0  0
  4 27  1  0  0  0
  4 28  1  0  0  0
  5  1  1  0  0  0
  6  7  1  0  0  0
  7  9  1  0  0  0
  8  3  1  0  0  0
  9 29  1  0  0  0
 10 29  1  0  0  0
 10 11  1  0  0  0
 11 12  1  0  0  0
 12 13  1  0  0  0
 13 14  1  0  0  0
 14 15  1  0  0  0
 14 16  1  0  0  0
 15 10  1  0  0  0
 16 17  1  0  0  0
 17 18  1  0  0  0
 17 19  1  0  0  0
 18 10  1  0  0  0
 19 12  1  0  0  0
 20 28  1  0  0  0
 20 21  1  0  0  0
 22 23  1  0  0  0
 24 25  1  0  0  0
 24 32  1  0  0  0
 26 21  1  0  0  0
 28  6  1  0  0  0
  1  2  2  0  0  0
  3  4  2  0  0  0
  5 27  2  0  0  0
  6 30  2  0  0  0
  7  8  2  0  0  0
  9 31  2  0  0  0
 21 22  2  0  0  0
 23 24  2  0  0  0
 25 26  2  0  0  0
M  END
> <rmsd>
0.465630859

$$$$
CHEMBL5268104_5TGZ


 32 36  0  0  0  0  0  0  0  0999 V2000
   86.1048  131.0402  124.1459 C   0  0  0  0  0
   87.3166  131.2075  123.2158 C   0  0  0  0  0
   88.4410  130.2399  123.6337 C   0  0  0  0  0
   88.8539  130.5560  125.0814 C   0  0  0  0  0
   87.6505  130.3916  126.0246 C   0  0  0  0  0
   86.5313  131.3514  125.5896 C   0  0  0  0  0
   87.1362  128.9455  125.9422 C   0  0  0  0  0
   86.7133  128.6202  124.5007 C   0  0  0  0  0
   85.6011  129.5895  124.0671 C   0  0  0  0  0
   87.9245  128.7892  123.5702 C   0  0  0  0  0
   89.5990  130.1958  121.3458 C   0  0  0  0  0
   90.8288  130.3920  120.5606 C   0  0  0  0  0
   92.0786  130.7723  121.0268 C   0  0  0  0  0
   92.8887  130.8113  119.8992 C   0  0  0  0  0
   92.5173  130.4479  117.4303 C   0  0  0  0  0
   92.4172  131.8415  116.8306 C   0  0  0  0  0
   90.9623  132.2395  116.6531 C   0  0  0  0  0
   90.8656  133.6367  116.0648 C   0  0  0  0  0
   89.6683  133.0941  113.8243 C   0  0  0  0  0
   94.3317  131.1665  119.8526 C   0  0  0  0  0
   94.9118  131.9270  120.8798 C   0  0  0  0  0
   96.2689  132.2595  120.8422 C   0  0  0  0  0
   97.0625  131.8329  119.7752 C   0  0  0  0  0
   96.4988  131.0735  118.7476 C   0  0  0  0  0
   95.1415  130.7422  118.7881 C   0  0  0  0  0
   92.4726  131.0361  122.4425 C   0  0  0  0  0
   89.6017  130.4043  122.7641 N   0  0  0  0  0
   92.1250  130.4657  118.8343 N   0  0  0  0  0
   90.8847  130.2199  119.2259 N   0  0  0  0  0
   88.6083  132.7466  113.5162 N   0  0  0  0  0
   88.5407  129.8434  120.7585 O   0  0  0  0  0
   91.2851  133.6234  114.2936 S   0  0  0  0  0
  1  2  1  0  0  0
  2  3  1  0  0  0
  3  4  1  0  0  0
  3 27  1  0  0  0
  4  5  1  0  0  0
  5  6  1  0  0  0
  5  7  1  0  0  0
  6  1  1  0  0  0
  7  8  1  0  0  0
  8  9  1  0  0  0
  8 10  1  0  0  0
  9  1  1  0  0  0
 10  3  1  0  0  0
 11 12  1  0  0  0
 12 13  1  0  0  0
 14 28  1  0  0  0
 14 20  1  0  0  0
 15 28  1  0  0  0
 15 16  1  0  0  0
 16 17  1  0  0  0
 17 18  1  0  0  0
 18 32  1  0  0  0
 21 22  1  0  0  0
 23 24  1  0  0  0
 25 20  1  0  0  0
 26 13  1  0  0  0
 27 11  1  0  0  0
 28 29  1  0  0  0
 32 19  1  0  0  0
 11 31  2  0  0  0
 12 29  2  0  0  0
 13 14  2  0  0  0
 20 21  2  0  0  0
 22 23  2  0  0  0
 24 25  2  0  0  0
 19 30  3  0  0  0
M  END
> <rmsd>
0.734321117

$$$$
