CHEMBL232410_7FEE


 24 25  0  0  0  0  0  0  0  0999 V2000
   -1.2616   22.6866   -9.0698 C   0  0  0  0  0
   -0.1923   21.6463   -9.3449 C   0  0  0  0  0
    0.5023   21.2418   -8.0527 C   0  0  0  0  0
   -0.3908   20.3577   -7.1953 C   0  0  0  0  0
   -0.5005   18.9724   -7.8017 C   0  0  0  0  0
   -1.4498   18.1246   -6.9641 C   0  0  0  0  0
   -1.6958   16.7277   -7.5563 C   0  0  0  0  0
   -2.5232   15.9551   -6.5449 C   0  0  0  0  0
   -0.3633   16.0041   -7.7151 C   0  0  0  0  0
   -2.4449   16.7523   -8.8800 C   0  0  0  0  0
   -2.9634   17.9445   -9.4142 C   0  0  0  0  0
   -3.6648   17.9411  -10.6210 C   0  0  0  0  0
   -3.8691   16.7445  -11.3177 C   0  0  0  0  0
   -4.6180   16.7667  -12.5951 C   0  0  0  0  0
   -5.8947   16.1664  -12.6903 C   0  0  0  0  0
   -6.5490   15.5164  -11.5168 C   0  0  0  0  0
   -6.5936   16.1959  -13.9001 C   0  0  0  0  0
   -6.0402   16.8144  -15.0209 C   0  0  0  0  0
   -4.7828   17.4118  -14.9377 C   0  0  0  0  0
   -4.0695   17.3960  -13.7362 C   0  0  0  0  0
   -2.7204   18.0339  -13.7112 C   0  0  0  0  0
   -3.3590   15.5443  -10.7922 C   0  0  0  0  0
   -2.6589   15.5539   -9.5830 C   0  0  0  0  0
   -3.5340   14.3415  -11.4669 O   0  0  0  0  0
  1  2  1  0  0  0
  2  3  1  0  0  0
  3  4  1  0  0  0
  4  5  1  0  0  0
  5  6  1  0  0  0
  6  7  1  0  0  0
  7  8  1  0  0  0
  7  9  1  0  0  0
  7 10  1  0  0  0
 11 12  1  0  0  0
 13 14  1  0  0  0
 13 22  1  0  0  0
 15 17  1  0  0  0
 16 15  1  0  0  0
 18 19  1  0  0  0
 20 14  1  0  0  0
 21 20  1  0  0  0
 22 24  1  0  0  0
 23 10  1  0  0  0
 10 11  2  0  0  0
 12 13  2  0  0  0
 14 15  2  0  0  0
 17 18  2  0  0  0
 19 20  2  0  0  0
 22 23  2  0  0  0
M  END
> <rmsd>
0.379655331

$$$$
CHEMBL108868_5XRA


 29 32  0  0  0  0  0  0  0  0999 V2000
   -0.4965   23.3322   -8.6245 C   0  0  0  0  0
    0.6899   22.6723   -7.9470 C   0  0  0  0  0
    0.5404   21.1619   -7.9712 C   0  0  0  0  0
   -0.4841   20.7132   -6.9417 C   0  0  0  0  0
   -0.6610   19.2071   -6.9945 C   0  0  0  0  0
   -1.4773   18.8122   -8.2227 C   0  0  0  0  0
   -1.6810   17.2923   -8.3657 C   0  0  0  0  0
   -2.4935   16.9467   -9.6036 C   0  0  0  0  0
   -2.7849   15.6039   -9.8975 C   0  0  0  0  0
   -3.5287   15.2598  -11.0280 C   0  0  0  0  0
   -3.9983   16.2616  -11.8927 C   0  0  0  0  0
   -3.7118   17.6107  -11.6098 C   0  0  0  0  0
   -2.9647   17.9412  -10.4771 C   0  0  0  0  0
   -4.9981   18.4239  -13.5866 C   0  0  0  0  0
   -4.6509   19.4553  -14.6443 C   0  0  0  0  0
   -6.4375   18.6597  -13.1514 C   0  0  0  0  0
   -4.7925   17.0041  -14.1648 C   0  0  0  0  0
   -5.6834   16.6809  -15.3790 C   0  0  0  0  0
   -6.8922   15.8335  -15.0640 C   0  0  0  0  0
   -7.1413   15.3101  -13.8553 C   0  0  0  0  0
   -8.3756   14.5014  -13.6587 C   0  0  0  0  0
   -6.2629   15.5910  -12.6702 C   0  0  0  0  0
   -4.8274   15.8994  -13.0934 C   0  0  0  0  0
   -0.3233   16.5968   -8.4354 C   0  0  0  0  0
   -0.3681   15.4666   -7.4289 C   0  0  0  0  0
   -1.3773   15.8932   -6.3889 C   0  0  0  0  0
   -2.3893   16.7449   -7.1278 C   0  0  0  0  0
   -3.7964   13.9198  -11.2838 O   0  0  0  0  0
   -4.1356   18.6342  -12.4667 O   0  0  0  0  0
  1  2  1  0  0  0
  2  3  1  0  0  0
  3  4  1  0  0  0
  4  5  1  0  0  0
  5  6  1  0  0  0
  6  7  1  0  0  0
  7  8  1  0  0  0
  7 24  1  0  0  0
  9 10  1  0  0  0
 10 28  1  0  0  0
 11 12  1  0  0  0
 12 29  1  0  0  0
 13  8  1  0  0  0
 14 29  1  0  0  0
 14 15  1  0  0  0
 14 16  1  0  0  0
 17 14  1  0  0  0
 17 18  1  0  0  0
 18 19  1  0  0  0
 21 20  1  0  0  0
 22 20  1  0  0  0
 23 22  1  0  0  0
 23 17  1  0  0  0
 23 11  1  0  0  0
 24 25  1  0  0  0
 25 26  1  0  0  0
 26 27  1  0  0  0
 27  7  1  0  0  0
  8  9  2  0  0  0
 10 11  2  0  0  0
 12 13  2  0  0  0
 19 20  2  0  0  0
M  END
> <rmsd>
0.62856102

$$$$
CHEMBL108392_5XRA


 30 33  0  0  0  0  0  0  0  0999 V2000
    0.9241   22.8356   -9.8433 C   0  0  0  0  0
   -0.0302   22.3054   -8.7952 C   0  0  0  0  0
   -0.2407   20.8212   -9.0049 C   0  0  0  0  0
   -1.1858   20.2930   -7.9476 C   0  0  0  0  0
   -1.4007   18.8107   -8.1591 C   0  0  0  0  0
   -2.3424   18.2799   -7.0878 C   0  0  0  0  0
   -2.6358   16.7769   -7.2437 C   0  0  0  0  0
   -3.3458   16.5428   -8.5702 C   0  0  0  0  0
   -2.8342   15.6709   -9.5426 C   0  0  0  0  0
   -3.4877   15.4809  -10.7616 C   0  0  0  0  0
   -4.6698   16.1967  -11.0506 C   0  0  0  0  0
   -5.2242   17.0224  -10.0466 C   0  0  0  0  0
   -4.5539   17.2040   -8.8364 C   0  0  0  0  0
   -7.2882   17.4162  -11.3715 C   0  0  0  0  0
   -8.2291   18.5920  -11.5766 C   0  0  0  0  0
   -8.1469   16.1926  -11.0886 C   0  0  0  0  0
   -6.4213   17.1753  -12.6207 C   0  0  0  0  0
   -5.6797   18.4662  -13.0311 C   0  0  0  0  0
   -4.4490   18.2426  -13.8692 C   0  0  0  0  0
   -3.9242   17.0335  -14.1004 C   0  0  0  0  0
   -2.7105   16.9220  -14.9548 C   0  0  0  0  0
   -4.5727   15.7773  -13.5934 C   0  0  0  0  0
   -5.4393   16.0158  -12.3524 C   0  0  0  0  0
   -2.7654   16.7945   -4.4999 C   0  0  0  0  0
   -1.4755   16.0026   -4.4111 C   0  0  0  0  0
   -0.5268   16.4379   -5.5102 C   0  0  0  0  0
   -2.9525   14.5715  -11.6658 O   0  0  0  0  0
   -6.4488   17.6764  -10.2447 O   0  0  0  0  0
   -3.7736   16.2279   -5.9093 S   0  0  0  0  0
   -1.0748   15.7918   -7.1239 S   0  0  0  0  0
  1  2  1  0  0  0
  2  3  1  0  0  0
  3  4  1  0  0  0
  4  5  1  0  0  0
  5  6  1  0  0  0
  6  7  1  0  0  0
  7  8  1  0  0  0
  7 29  1  0  0  0
  7 30  1  0  0  0
  9 10  1  0  0  0
 10 27  1  0  0  0
 11 12  1  0  0  0
 12 28  1  0  0  0
 13  8  1  0  0  0
 14 28  1  0  0  0
 14 15  1  0  0  0
 14 16  1  0  0  0
 17 14  1  0  0  0
 17 18  1  0  0  0
 18 19  1  0  0  0
 21 20  1  0  0  0
 22 20  1  0  0  0
 23 22  1  0  0  0
 23 17  1  0  0  0
 23 11  1  0  0  0
 24 29  1  0  0  0
 24 25  1  0  0  0
 25 26  1  0  0  0
 26 30  1  0  0  0
  8  9  2  0  0  0
 10 11  2  0  0  0
 12 13  2  0  0  0
 19 20  2  0  0  0
M  END
> <rmsd>
0.740742624

$$$$
CHEMBL325135_5XRA


 31 34  0  0  0  0  0  0  0  0999 V2000
   -0.8007   23.1719   -7.6100 C   0  0  0  0  0
   -0.1474   22.5365   -8.8229 C   0  0  0  0  0
   -0.6110   21.0999   -8.9820 C   0  0  0  0  0
    0.0740   20.2047   -7.9618 C   0  0  0  0  0
   -0.4183   18.7769   -8.1027 C   0  0  0  0  0
   -1.8182   18.6386   -7.5099 C   0  0  0  0  0
   -2.4467   17.2535   -7.7361 C   0  0  0  0  0
   -2.7321   16.9635   -9.2015 C   0  0  0  0  0
   -3.2265   15.7059   -9.5757 C   0  0  0  0  0
   -3.5321   15.4139  -10.9065 C   0  0  0  0  0
   -3.3821   16.4047  -11.9013 C   0  0  0  0  0
   -2.8298   17.6533  -11.5364 C   0  0  0  0  0
   -2.5358   17.9283  -10.2006 C   0  0  0  0  0
   -2.6717   18.3873  -13.9038 C   0  0  0  0  0
   -2.8417   19.7075  -14.6378 C   0  0  0  0  0
   -1.3758   17.7593  -14.3950 C   0  0  0  0  0
   -3.8546   17.4413  -14.1809 C   0  0  0  0  0
   -5.1975   18.1335  -13.8602 C   0  0  0  0  0
   -6.3385   17.1915  -13.5786 C   0  0  0  0  0
   -6.1867   15.8687  -13.4456 C   0  0  0  0  0
   -7.3844   15.0252  -13.1811 C   0  0  0  0  0
   -4.8563   15.2001  -13.6422 C   0  0  0  0  0
   -3.6763   16.1395  -13.3723 C   0  0  0  0  0
   -2.6477   15.0649   -6.2431 C   0  0  0  0  0
   -2.0917   14.0487   -5.2609 C   0  0  0  0  0
   -3.5808   16.0597   -5.5853 C   0  0  0  0  0
   -2.9419   16.7829   -4.4057 C   0  0  0  0  0
   -3.9726   14.1337  -11.2197 O   0  0  0  0  0
   -2.5743   18.6388  -12.5006 O   0  0  0  0  0
   -1.3131   15.9706   -7.0579 S   0  0  0  0  0
   -4.0542   17.2693   -6.8461 S   0  0  0  0  0
  1  2  1  0  0  0
  2  3  1  0  0  0
  3  4  1  0  0  0
  4  5  1  0  0  0
  5  6  1  0  0  0
  7  6  1  0  0  0
  7  8  1  0  0  0
  7 30  1  0  0  0
  7 31  1  0  0  0
  9 10  1  0  0  0
 10 28  1  0  0  0
 11 12  1  0  0  0
 12 29  1  0  0  0
 13  8  1  0  0  0
 14 29  1  0  0  0
 14 15  1  0  0  0
 14 16  1  0  0  0
 17 14  1  0  0  0
 17 18  1  0  0  0
 18 19  1  0  0  0
 21 20  1  0  0  0
 22 20  1  0  0  0
 23 22  1  0  0  0
 23 17  1  0  0  0
 23 11  1  0  0  0
 24 30  1  0  0  0
 24 25  1  0  0  0
 24 26  1  0  0  0
 26 27  1  0  0  0
 26 31  1  0  0  0
  8  9  2  0  0  0
 10 11  2  0  0  0
 12 13  2  0  0  0
 19 20  2  0  0  0
M  END
> <rmsd>
0.689222217

$$$$
CHEMBL394305_7FEE


 27 29  0  0  0  0  0  0  0  0999 V2000
   -2.6123   18.7208  -13.3367 C   0  0  0  0  0
   -3.9273   18.5246  -13.3559 C   0  0  0  0  0
   -4.8432   19.6945  -13.1961 C   0  0  0  0  0
   -4.4625   17.1263  -13.4692 C   0  0  0  0  0
   -5.3549   17.0043  -14.6998 C   0  0  0  0  0
   -5.8259   15.5623  -14.8895 C   0  0  0  0  0
   -6.2806   14.9075  -13.6081 C   0  0  0  0  0
   -6.9802   13.5959  -13.6860 C   0  0  0  0  0
   -5.9852   15.4114  -12.4005 C   0  0  0  0  0
   -5.2599   16.7206  -12.2189 C   0  0  0  0  0
   -4.4133   16.6939  -10.9728 C   0  0  0  0  0
   -4.7315   17.5576   -9.9106 C   0  0  0  0  0
   -3.9519   17.5624   -8.7517 C   0  0  0  0  0
   -2.8556   16.7016   -8.6306 C   0  0  0  0  0
   -1.9913   16.7483   -7.4076 C   0  0  0  0  0
   -0.6928   17.5389   -7.4190 C   0  0  0  0  0
   -0.9732   19.0193   -7.5958 C   0  0  0  0  0
    0.3375   19.7782   -7.6733 C   0  0  0  0  0
    0.0786   21.2555   -7.9084 C   0  0  0  0  0
   -0.3368   21.4973   -9.3476 C   0  0  0  0  0
   -0.6021   22.9732   -9.5552 C   0  0  0  0  0
   -1.9129   15.4474   -6.6396 C   0  0  0  0  0
   -2.6901   16.6261   -6.0699 C   0  0  0  0  0
   -2.5284   15.8479   -9.6894 C   0  0  0  0  0
   -3.3007   15.8347  -10.8533 C   0  0  0  0  0
   -5.8184   18.4197  -10.0004 O   0  0  0  0  0
   -2.9531   14.9700  -11.8847 O   0  0  0  0  0
  3  2  1  0  0  0
  4  2  1  0  0  0
  4  5  1  0  0  0
  5  6  1  0  0  0
  6  7  1  0  0  0
  8  7  1  0  0  0
 10  9  1  0  0  0
 10 11  1  0  0  0
 10  4  1  0  0  0
 12 26  1  0  0  0
 12 13  1  0  0  0
 14 24  1  0  0  0
 15 14  1  0  0  0
 15 16  1  0  0  0
 15 22  1  0  0  0
 16 17  1  0  0  0
 17 18  1  0  0  0
 18 19  1  0  0  0
 19 20  1  0  0  0
 20 21  1  0  0  0
 22 23  1  0  0  0
 23 15  1  0  0  0
 25 27  1  0  0  0
 25 11  1  0  0  0
  1  2  2  0  0  0
  7  9  2  0  0  0
 11 12  2  0  0  0
 13 14  2  0  0  0
 24 25  2  0  0  0
M  END
> <rmsd>
0.72831732

$$$$
CHEMBL234845_7FEE


 24 25  0  0  0  0  0  0  0  0999 V2000
   -1.2156   23.4282   -8.6859 C   0  0  0  0  0
   -0.1873   22.4531   -8.1533 C   0  0  0  0  0
   -0.6075   21.0402   -8.4970 C   0  0  0  0  0
    0.4213   20.0619   -7.9622 C   0  0  0  0  0
    0.0132   18.6379   -8.2906 C   0  0  0  0  0
   -1.1216   18.1858   -7.3742 C   0  0  0  0  0
   -1.6614   16.7891   -7.7204 C   0  0  0  0  0
   -2.6513   16.4131   -6.6326 C   0  0  0  0  0
   -0.5199   15.7795   -7.6776 C   0  0  0  0  0
   -2.3705   16.7289   -9.0647 C   0  0  0  0  0
   -2.6045   17.8813   -9.8289 C   0  0  0  0  0
   -3.2763   17.8033  -11.0487 C   0  0  0  0  0
   -3.7437   16.5751  -11.5454 C   0  0  0  0  0
   -4.4598   16.5581  -12.8546 C   0  0  0  0  0
   -5.1678   15.4273  -13.2930 C   0  0  0  0  0
   -5.8414   15.4321  -14.5166 C   0  0  0  0  0
   -5.8189   16.5726  -15.3203 C   0  0  0  0  0
   -5.1223   17.7160  -14.9024 C   0  0  0  0  0
   -5.7331   18.9792  -16.9396 C   0  0  0  0  0
   -4.4515   17.7002  -13.6757 C   0  0  0  0  0
   -3.5113   15.4099  -10.7743 C   0  0  0  0  0
   -2.8384   15.4990   -9.5524 C   0  0  0  0  0
   -5.0805   18.8755  -15.6814 O   0  0  0  0  0
   -3.9279   14.1553  -11.2029 O   0  0  0  0  0
  1  2  1  0  0  0
  2  3  1  0  0  0
  3  4  1  0  0  0
  4  5  1  0  0  0
  5  6  1  0  0  0
  6  7  1  0  0  0
  7  8  1  0  0  0
  7  9  1  0  0  0
  7 10  1  0  0  0
 11 12  1  0  0  0
 13 14  1  0  0  0
 13 21  1  0  0  0
 15 16  1  0  0  0
 17 18  1  0  0  0
 18 23  1  0  0  0
 19 23  1  0  0  0
 20 14  1  0  0  0
 21 24  1  0  0  0
 22 10  1  0  0  0
 10 11  2  0  0  0
 12 13  2  0  0  0
 14 15  2  0  0  0
 16 17  2  0  0  0
 18 20  2  0  0  0
 21 22  2  0  0  0
M  END
> <rmsd>
0.619720459

$$$$
CHEMBL232411_7FEE


 24 25  0  0  0  0  0  0  0  0999 V2000
   -1.2669   22.6984   -9.0573 C   0  0  0  0  0
   -0.1985   21.6588   -9.3384 C   0  0  0  0  0
    0.4970   21.2477   -8.0489 C   0  0  0  0  0
   -0.3956   20.3592   -7.1956 C   0  0  0  0  0
   -0.5037   18.9763   -7.8076 C   0  0  0  0  0
   -1.4501   18.1233   -6.9722 C   0  0  0  0  0
   -1.6888   16.7258   -7.5655 C   0  0  0  0  0
   -2.5150   15.9490   -6.5563 C   0  0  0  0  0
   -0.3529   16.0081   -7.7218 C   0  0  0  0  0
   -2.4347   16.7477   -8.8910 C   0  0  0  0  0
   -2.9635   17.9363   -9.4222 C   0  0  0  0  0
   -3.6572   17.9308  -10.6335 C   0  0  0  0  0
   -3.8388   16.7374  -11.3428 C   0  0  0  0  0
   -4.5823   16.7657  -12.6194 C   0  0  0  0  0
   -5.8929   17.2652  -12.6216 C   0  0  0  0  0
   -6.6345   17.3107  -13.8040 C   0  0  0  0  0
   -8.0247   17.8355  -13.7889 C   0  0  0  0  0
   -6.0703   16.8632  -14.9995 C   0  0  0  0  0
   -4.7612   16.3771  -15.0146 C   0  0  0  0  0
   -4.0106   16.3266  -13.8354 C   0  0  0  0  0
   -2.5985   15.8522  -13.9189 C   0  0  0  0  0
   -3.3413   15.5357  -10.8047 C   0  0  0  0  0
   -2.6449   15.5486   -9.5932 C   0  0  0  0  0
   -3.5502   14.3232  -11.4518 O   0  0  0  0  0
  1  2  1  0  0  0
  2  3  1  0  0  0
  3  4  1  0  0  0
  4  5  1  0  0  0
  5  6  1  0  0  0
  6  7  1  0  0  0
  7  8  1  0  0  0
  7  9  1  0  0  0
  7 10  1  0  0  0
 11 12  1  0  0  0
 13 14  1  0  0  0
 13 22  1  0  0  0
 15 16  1  0  0  0
 17 16  1  0  0  0
 18 19  1  0  0  0
 20 14  1  0  0  0
 21 20  1  0  0  0
 22 24  1  0  0  0
 23 10  1  0  0  0
 10 11  2  0  0  0
 12 13  2  0  0  0
 14 15  2  0  0  0
 16 18  2  0  0  0
 19 20  2  0  0  0
 22 23  2  0  0  0
M  END
> <rmsd>
0.381269306

$$$$
CHEMBL234897_7FEE


 23 24  0  0  0  0  0  0  0  0999 V2000
    0.1483   23.1000   -9.5045 C   0  0  0  0  0
   -0.1384   22.4434   -8.1707 C   0  0  0  0  0
   -0.7463   21.0767   -8.4025 C   0  0  0  0  0
   -1.0324   20.4168   -7.0667 C   0  0  0  0  0
   -1.6356   19.0408   -7.2785 C   0  0  0  0  0
   -0.5583   18.0497   -7.7134 C   0  0  0  0  0
   -1.1153   16.6582   -8.0530 C   0  0  0  0  0
    0.0762   15.7503   -8.2987 C   0  0  0  0  0
   -1.8761   16.1098   -6.8511 C   0  0  0  0  0
   -2.0002   16.6445   -9.2900 C   0  0  0  0  0
   -2.1627   17.7832  -10.0954 C   0  0  0  0  0
   -2.9648   17.7418  -11.2366 C   0  0  0  0  0
   -3.6189   16.5596  -11.6109 C   0  0  0  0  0
   -4.4890   16.5545  -12.8134 C   0  0  0  0  0
   -5.7549   15.9511  -12.7392 C   0  0  0  0  0
   -6.6113   15.9470  -13.8423 C   0  0  0  0  0
   -6.2130   16.5489  -15.0363 C   0  0  0  0  0
   -4.9575   17.1525  -15.1280 C   0  0  0  0  0
   -4.0942   17.1625  -14.0277 C   0  0  0  0  0
   -3.4525   15.4088  -10.8130 C   0  0  0  0  0
   -2.6493   15.4582   -9.6704 C   0  0  0  0  0
   -2.8076   17.7580  -14.1722 N   0  0  0  0  0
   -4.0627   14.2067  -11.1525 O   0  0  0  0  0
  1  2  1  0  0  0
  2  3  1  0  0  0
  3  4  1  0  0  0
  4  5  1  0  0  0
  5  6  1  0  0  0
  6  7  1  0  0  0
  7  8  1  0  0  0
  7  9  1  0  0  0
  7 10  1  0  0  0
 11 12  1  0  0  0
 13 14  1  0  0  0
 13 20  1  0  0  0
 15 16  1  0  0  0
 17 18  1  0  0  0
 19 22  1  0  0  0
 19 14  1  0  0  0
 20 23  1  0  0  0
 21 10  1  0  0  0
 10 11  2  0  0  0
 12 13  2  0  0  0
 14 15  2  0  0  0
 16 17  2  0  0  0
 18 19  2  0  0  0
 20 21  2  0  0  0
M  END
> <rmsd>
0.636199296

$$$$
CHEMBL600602_5XRA


 27 29  0  0  0  0  0  0  0  0999 V2000
    0.5198   22.7043   -9.6674 C   0  0  0  0  0
    0.0866   22.6756   -8.2137 C   0  0  0  0  0
   -0.9613   21.5991   -7.9939 C   0  0  0  0  0
   -0.3158   20.2264   -7.9813 C   0  0  0  0  0
   -1.3816   19.1719   -7.7776 C   0  0  0  0  0
   -0.7373   17.7919   -7.7800 C   0  0  0  0  0
   -1.7351   16.6378   -7.6184 C   0  0  0  0  0
   -0.9098   15.3744   -7.4120 C   0  0  0  0  0
   -2.5677   16.8245   -6.3556 C   0  0  0  0  0
   -2.6423   16.5231   -8.8373 C   0  0  0  0  0
   -2.5473   15.4399   -9.7254 C   0  0  0  0  0
   -3.3708   15.3498  -10.8497 C   0  0  0  0  0
   -4.2998   16.3750  -11.1322 C   0  0  0  0  0
   -4.4493   17.4270  -10.2019 C   0  0  0  0  0
   -3.6136   17.5040   -9.0868 C   0  0  0  0  0
   -6.4653   18.3066  -11.3554 C   0  0  0  0  0
   -6.9736   19.7033  -11.6621 C   0  0  0  0  0
   -7.6152   17.4846  -10.7859 C   0  0  0  0  0
   -5.8900   17.6681  -12.6285 C   0  0  0  0  0
   -6.9151   17.4667  -13.7442 C   0  0  0  0  0
   -6.2219   17.0088  -15.0336 C   0  0  0  0  0
   -5.0455   16.0816  -14.8118 C   0  0  0  0  0
   -4.3325   15.5384  -16.0003 C   0  0  0  0  0
   -4.5602   15.8133  -13.5885 C   0  0  0  0  0
   -5.2282   16.3154  -12.3330 C   0  0  0  0  0
   -3.2589   14.2314  -11.6672 O   0  0  0  0  0
   -5.4317   18.4104  -10.3767 O   0  0  0  0  0
  1  2  1  0  0  0
  2  3  1  0  0  0
  3  4  1  0  0  0
  4  5  1  0  0  0
  5  6  1  0  0  0
  6  7  1  0  0  0
  7  8  1  0  0  0
  7  9  1  0  0  0
  7 10  1  0  0  0
 11 12  1  0  0  0
 12 26  1  0  0  0
 13 14  1  0  0  0
 14 27  1  0  0  0
 15 10  1  0  0  0
 16 27  1  0  0  0
 16 17  1  0  0  0
 16 18  1  0  0  0
 19 16  1  0  0  0
 19 20  1  0  0  0
 20 21  1  0  0  0
 21 22  1  0  0  0
 23 22  1  0  0  0
 25 24  1  0  0  0
 25 19  1  0  0  0
 25 13  1  0  0  0
 10 11  2  0  0  0
 12 13  2  0  0  0
 14 15  2  0  0  0
 22 24  2  0  0  0
M  END
> <rmsd>
0.365642846

$$$$
CHEMBL5183968_7FEE


 28 30  0  0  0  0  0  0  0  0999 V2000
   -4.7408   19.7161  -12.9253 C   0  0  0  0  0
   -5.7316   18.8060  -12.2202 C   0  0  0  0  0
   -7.0716   19.5208  -12.1471 C   0  0  0  0  0
   -5.8492   17.5075  -12.9951 C   0  0  0  0  0
   -5.1073   16.3683  -12.6020 C   0  0  0  0  0
   -4.2865   16.4143  -11.3602 C   0  0  0  0  0
   -4.4307   17.5362  -10.5219 C   0  0  0  0  0
   -3.7432   17.6088   -9.3090 C   0  0  0  0  0
   -2.8775   16.5846   -8.9278 C   0  0  0  0  0
   -2.7160   15.4708   -9.7516 C   0  0  0  0  0
   -3.4065   15.3768  -10.9630 C   0  0  0  0  0
   -1.5821   18.4541   -6.9078 C   0  0  0  0  0
   -0.7045   19.0356   -7.9966 C   0  0  0  0  0
   -0.4085   20.4863   -7.6848 C   0  0  0  0  0
    0.4566   21.0719   -8.7847 C   0  0  0  0  0
    0.7524   22.5343   -8.5046 C   0  0  0  0  0
   -0.4649   23.3882   -8.8061 C   0  0  0  0  0
   -0.4231   15.6711   -7.3771 C   0  0  0  0  0
   -3.1047   15.9898   -5.9738 C   0  0  0  0  0
   -5.1901   15.2021  -13.3796 C   0  0  0  0  0
   -5.9738   15.1602  -14.5340 C   0  0  0  0  0
   -6.6745   16.2953  -14.9392 C   0  0  0  0  0
   -6.6091   17.4620  -14.1776 C   0  0  0  0  0
   -6.0244   13.9205  -15.3547 C   0  0  0  0  0
   -3.1998   14.2511  -11.7513 O   0  0  0  0  0
   -5.2795   18.5853  -10.8828 O   0  0  0  0  0
   -4.9951   13.9360  -16.2959 O   0  0  0  0  0
   -1.9976   16.6762   -7.3108 Si  0  0  0  0  0
  1  2  1  0  0  0
  2  3  1  0  0  0
  2  4  1  0  0  0
  2 26  1  0  0  0
  5  6  1  0  0  0
  5 20  1  0  0  0
  7  8  1  0  0  0
  7 26  1  0  0  0
  9 10  1  0  0  0
 11 25  1  0  0  0
 11  6  1  0  0  0
 12 13  1  0  0  0
 13 14  1  0  0  0
 14 15  1  0  0  0
 15 16  1  0  0  0
 16 17  1  0  0  0
 21 22  1  0  0  0
 23  4  1  0  0  0
 24 21  1  0  0  0
 24 27  1  0  0  0
 28  9  1  0  0  0
 28 12  1  0  0  0
 28 18  1  0  0  0
 28 19  1  0  0  0
  4  5  2  0  0  0
  6  7  2  0  0  0
  8  9  2  0  0  0
 10 11  2  0  0  0
 20 21  2  0  0  0
 22 23  2  0  0  0
M  END
> <rmsd>
0.408952713

$$$$
CHEMBL5186021_7FEE


 23 24  0  0  0  0  0  0  0  0999 V2000
    0.0114   22.7068   -9.5651 C   0  0  0  0  0
   -1.1037   21.7509   -9.1857 C   0  0  0  0  0
   -1.0495   21.4337   -7.6995 C   0  0  0  0  0
    0.0992   20.4857   -7.3784 C   0  0  0  0  0
   -0.2111   19.0692   -7.8346 C   0  0  0  0  0
   -1.1999   18.4152   -6.8870 C   0  0  0  0  0
    0.0632   15.7292   -7.6024 C   0  0  0  0  0
   -2.6005   15.8228   -6.1405 C   0  0  0  0  0
   -2.4447   16.6313   -9.0458 C   0  0  0  0  0
   -2.7448   15.4084   -9.6457 C   0  0  0  0  0
   -3.4271   15.3678  -10.8630 C   0  0  0  0  0
   -3.8216   16.5604  -11.4951 C   0  0  0  0  0
   -3.5232   17.8010  -10.8861 C   0  0  0  0  0
   -2.8335   17.8211   -9.6630 C   0  0  0  0  0
   -3.6726   20.2743  -10.9399 C   0  0  0  0  0
   -4.5556   16.4754  -12.8067 C   0  0  0  0  0
   -5.9367   17.0935  -12.7355 C   0  0  0  0  0
   -6.1881   17.6427  -14.1200 C   0  0  0  0  0
   -4.8264   18.0404  -14.6520 C   0  0  0  0  0
   -3.8106   17.1693  -13.9350 C   0  0  0  0  0
   -1.5480   16.6606   -7.4350 Si  0  0  0  0  0
   -3.9185   18.9938  -11.5040 O   0  0  0  0  0
   -3.7104   14.1344  -11.4388 O   0  0  0  0  0
  1  2  1  0  0  0
  2  3  1  0  0  0
  3  4  1  0  0  0
  4  5  1  0  0  0
  5  6  1  0  0  0
  6 21  1  0  0  0
 10 11  1  0  0  0
 11 23  1  0  0  0
 12 13  1  0  0  0
 13 22  1  0  0  0
 14  9  1  0  0  0
 15 22  1  0  0  0
 16 12  1  0  0  0
 16 17  1  0  0  0
 17 18  1  0  0  0
 18 19  1  0  0  0
 19 20  1  0  0  0
 20 16  1  0  0  0
 21  7  1  0  0  0
 21  8  1  0  0  0
 21  9  1  0  0  0
  9 10  2  0  0  0
 11 12  2  0  0  0
 13 14  2  0  0  0
M  END
> <rmsd>
0.54738754

$$$$
CHEMBL234678_7FEE


 24 25  0  0  0  0  0  0  0  0999 V2000
   -1.2571   22.6694   -9.0917 C   0  0  0  0  0
   -0.1822   21.6302   -9.3486 C   0  0  0  0  0
    0.5007   21.2371   -8.0465 C   0  0  0  0  0
   -0.3987   20.3578   -7.1909 C   0  0  0  0  0
   -0.5026   18.9686   -7.7894 C   0  0  0  0  0
   -1.4619   18.1268   -6.9572 C   0  0  0  0  0
   -1.7102   16.7301   -7.5492 C   0  0  0  0  0
   -2.5502   15.9634   -6.5437 C   0  0  0  0  0
   -0.3802   15.9995   -7.6956 C   0  0  0  0  0
   -2.4479   16.7568   -8.8793 C   0  0  0  0  0
   -2.9566   17.9493   -9.4184 C   0  0  0  0  0
   -3.6465   17.9471  -10.6313 C   0  0  0  0  0
   -3.8499   16.7540  -11.3391 C   0  0  0  0  0
   -4.6077   16.7826  -12.6152 C   0  0  0  0  0
   -5.5837   15.8020  -12.8555 C   0  0  0  0  0
   -6.3341   15.8117  -14.0321 C   0  0  0  0  0
   -6.1207   16.8059  -14.9861 C   0  0  0  0  0
   -5.1546   17.7880  -14.7643 C   0  0  0  0  0
   -4.3900   17.7885  -13.5850 C   0  0  0  0  0
   -3.1344   19.8003  -14.3076 C   0  0  0  0  0
   -3.3500   15.5504  -10.7995 C   0  0  0  0  0
   -2.6616   15.5601   -9.5832 C   0  0  0  0  0
   -3.4071   18.7638  -13.3742 O   0  0  0  0  0
   -3.5133   14.3422  -11.4673 O   0  0  0  0  0
  1  2  1  0  0  0
  2  3  1  0  0  0
  3  4  1  0  0  0
  4  5  1  0  0  0
  5  6  1  0  0  0
  6  7  1  0  0  0
  7  8  1  0  0  0
  7  9  1  0  0  0
  7 10  1  0  0  0
 11 12  1  0  0  0
 13 14  1  0  0  0
 13 21  1  0  0  0
 15 16  1  0  0  0
 17 18  1  0  0  0
 19 23  1  0  0  0
 19 14  1  0  0  0
 20 23  1  0  0  0
 21 24  1  0  0  0
 22 10  1  0  0  0
 10 11  2  0  0  0
 12 13  2  0  0  0
 14 15  2  0  0  0
 16 17  2  0  0  0
 18 19  2  0  0  0
 21 22  2  0  0  0
M  END
> <rmsd>
0.3799963

$$$$
CHEMBL5176902_7FEE


 23 24  0  0  0  0  0  0  0  0999 V2000
   -0.3857   15.4719   -7.4313 C   0  0  0  0  0
   -2.9572   16.2055   -5.9780 C   0  0  0  0  0
   -2.7299   16.6767   -8.9541 C   0  0  0  0  0
   -3.4477   17.8064   -9.3523 C   0  0  0  0  0
   -4.1781   17.7948  -10.5432 C   0  0  0  0  0
   -4.2031   16.6404  -11.3456 C   0  0  0  0  0
   -3.4879   15.4969  -10.9305 C   0  0  0  0  0
   -2.7609   15.5213   -9.7375 C   0  0  0  0  0
   -4.9957   16.6536  -12.6226 C   0  0  0  0  0
   -6.1488   15.6492  -12.5872 C   0  0  0  0  0
   -7.0316   15.7653  -13.8373 C   0  0  0  0  0
   -6.2756   16.2379  -15.0871 C   0  0  0  0  0
   -4.8084   15.8225  -15.0412 C   0  0  0  0  0
   -4.0902   16.4708  -13.8519 C   0  0  0  0  0
   -1.1327   18.4032   -7.0279 C   0  0  0  0  0
   -0.1973   18.8176   -8.1491 C   0  0  0  0  0
    0.2693   20.2472   -7.9469 C   0  0  0  0  0
   -0.8407   21.2206   -8.3099 C   0  0  0  0  0
   -0.3761   22.6523   -8.1127 C   0  0  0  0  0
    0.5546   23.0667   -9.2369 C   0  0  0  0  0
   -1.8018   16.6899   -7.3617 Si  0  0  0  0  0
   -3.4949   14.3349  -11.6934 O   0  0  0  0  0
   -4.8777   18.9352  -10.9209 O   0  0  0  0  0
  1 21  1  0  0  0
  4  5  1  0  0  0
  5 23  1  0  0  0
  6  7  1  0  0  0
  7 22  1  0  0  0
  8  3  1  0  0  0
  9  6  1  0  0  0
  9 10  1  0  0  0
 10 11  1  0  0  0
 11 12  1  0  0  0
 12 13  1  0  0  0
 13 14  1  0  0  0
 14  9  1  0  0  0
 15 16  1  0  0  0
 16 17  1  0  0  0
 17 18  1  0  0  0
 18 19  1  0  0  0
 19 20  1  0  0  0
 21  2  1  0  0  0
 21  3  1  0  0  0
 21 15  1  0  0  0
  3  4  2  0  0  0
  5  6  2  0  0  0
  7  8  2  0  0  0
M  END
> <rmsd>
0.45185113

$$$$
CHEMBL391134_7FEE


 24 25  0  0  0  0  0  0  0  0999 V2000
   -1.2459   22.6814   -9.0797 C   0  0  0  0  0
   -0.1758   21.6382   -9.3404 C   0  0  0  0  0
    0.5054   21.2374   -8.0400 C   0  0  0  0  0
   -0.3978   20.3585   -7.1878 C   0  0  0  0  0
   -0.5055   18.9714   -7.7904 C   0  0  0  0  0
   -1.4661   18.1294   -6.9600 C   0  0  0  0  0
   -1.7130   16.7326   -7.5521 C   0  0  0  0  0
   -2.5542   15.9658   -6.5476 C   0  0  0  0  0
   -0.3826   16.0024   -7.6964 C   0  0  0  0  0
   -2.4488   16.7586   -8.8832 C   0  0  0  0  0
   -2.9578   17.9511   -9.4233 C   0  0  0  0  0
   -3.6457   17.9485  -10.6376 C   0  0  0  0  0
   -3.8439   16.7545  -11.3443 C   0  0  0  0  0
   -4.6027   16.7759  -12.6182 C   0  0  0  0  0
   -5.6740   15.8841  -12.7739 C   0  0  0  0  0
   -6.4354   15.8779  -13.9419 C   0  0  0  0  0
   -6.1361   16.7669  -14.9725 C   0  0  0  0  0
   -5.0740   17.6644  -14.8446 C   0  0  0  0  0
   -4.7898   18.5899  -15.9801 C   0  0  0  0  0
   -4.2964   17.6772  -13.6682 C   0  0  0  0  0
   -3.1297   18.6117  -13.5624 C   0  0  0  0  0
   -3.3488   15.5514  -10.8034 C   0  0  0  0  0
   -2.6621   15.5610   -9.5863 C   0  0  0  0  0
   -3.5192   14.3440  -11.4712 O   0  0  0  0  0
  1  2  1  0  0  0
  2  3  1  0  0  0
  3  4  1  0  0  0
  4  5  1  0  0  0
  5  6  1  0  0  0
  6  7  1  0  0  0
  7  8  1  0  0  0
  7  9  1  0  0  0
  7 10  1  0  0  0
 11 12  1  0  0  0
 13 14  1  0  0  0
 13 22  1  0  0  0
 15 16  1  0  0  0
 17 18  1  0  0  0
 19 18  1  0  0  0
 20 14  1  0  0  0
 21 20  1  0  0  0
 22 24  1  0  0  0
 23 10  1  0  0  0
 10 11  2  0  0  0
 12 13  2  0  0  0
 14 15  2  0  0  0
 16 17  2  0  0  0
 18 20  2  0  0  0
 22 23  2  0  0  0
M  END
> <rmsd>
0.375871181

$$$$
CHEMBL303479_5XRA


 28 31  0  0  0  0  0  0  0  0999 V2000
   -4.5300   16.3989  -11.0190 C   0  0  0  0  0
   -3.3491   15.7275  -10.6329 C   0  0  0  0  0
   -2.7255   16.0321   -9.4105 C   0  0  0  0  0
   -3.2779   17.0176   -8.5631 C   0  0  0  0  0
   -4.5006   17.6026   -8.9058 C   0  0  0  0  0
   -5.1329   17.2906  -10.1077 C   0  0  0  0  0
   -7.2114   17.4255  -11.4509 C   0  0  0  0  0
   -6.3387   17.0976  -12.6723 C   0  0  0  0  0
   -5.2244   16.0931  -12.3360 C   0  0  0  0  0
   -4.2406   16.0386  -13.5151 C   0  0  0  0  0
   -4.9179   15.9901  -14.8653 C   0  0  0  0  0
   -6.2205   16.2760  -15.0259 C   0  0  0  0  0
   -7.1344   16.5636  -13.8658 C   0  0  0  0  0
   -4.0855   15.7320  -16.0721 C   0  0  0  0  0
   -8.0072   16.2096  -10.9889 C   0  0  0  0  0
   -8.1834   18.5399  -11.7924 C   0  0  0  0  0
   -2.6547   17.3429   -7.2178 C   0  0  0  0  0
   -1.2608   16.7429   -7.0161 C   0  0  0  0  0
   -1.2093   15.3201   -7.5462 C   0  0  0  0  0
   -1.4358   15.3443   -9.0513 C   0  0  0  0  0
   -2.6576   18.8429   -6.8971 C   0  0  0  0  0
   -1.9347   19.6816   -7.9463 C   0  0  0  0  0
   -0.4445   19.7398   -7.6575 C   0  0  0  0  0
    0.2700   20.5384   -8.7329 C   0  0  0  0  0
    0.0162   22.0225   -8.5451 C   0  0  0  0  0
    0.7084   22.7962   -9.6479 C   0  0  0  0  0
   -6.3759   17.8713  -10.3843 O   0  0  0  0  0
   -2.7964   14.7478  -11.4542 O   0  0  0  0  0
  2  3  1  0  0  0
  2 28  1  0  0  0
  4  5  1  0  0  0
  6 27  1  0  0  0
  6  1  1  0  0  0
  7 27  1  0  0  0
  7  8  1  0  0  0
  7 15  1  0  0  0
  7 16  1  0  0  0
  8  9  1  0  0  0
  8 13  1  0  0  0
  9 10  1  0  0  0
  9  1  1  0  0  0
 10 11  1  0  0  0
 13 12  1  0  0  0
 14 11  1  0  0  0
 17  4  1  0  0  0
 17 18  1  0  0  0
 17 21  1  0  0  0
 18 19  1  0  0  0
 19 20  1  0  0  0
 20  3  1  0  0  0
 21 22  1  0  0  0
 22 23  1  0  0  0
 23 24  1  0  0  0
 24 25  1  0  0  0
 25 26  1  0  0  0
  1  2  2  0  0  0
  3  4  2  0  0  0
  5  6  2  0  0  0
 11 12  2  0  0  0
M  END
> <rmsd>
0.692887306

$$$$
CHEMBL4463214_5XRA


 27 29  0  0  0  0  0  0  0  0999 V2000
   -1.3083   23.3443   -8.8562 C   0  0  0  0  0
   -0.2757   22.4129   -8.2577 C   0  0  0  0  0
   -0.6548   20.9793   -8.5613 C   0  0  0  0  0
    0.3788   20.0441   -7.9626 C   0  0  0  0  0
    0.0108   18.6013   -8.2543 C   0  0  0  0  0
   -1.1354   18.1528   -7.3505 C   0  0  0  0  0
   -1.6806   16.7611   -7.7087 C   0  0  0  0  0
   -2.6837   16.3858   -6.6329 C   0  0  0  0  0
   -0.5460   15.7439   -7.6606 C   0  0  0  0  0
   -2.3765   16.7137   -9.0603 C   0  0  0  0  0
   -2.5955   17.8774   -9.8182 C   0  0  0  0  0
   -3.2523   17.8226  -11.0488 C   0  0  0  0  0
   -3.7100   16.5853  -11.5391 C   0  0  0  0  0
   -3.5081   15.4146  -10.7891 C   0  0  0  0  0
   -2.8485   15.4870   -9.5597 C   0  0  0  0  0
   -4.3885   16.6056  -12.8361 C   0  0  0  0  0
   -5.2453   17.4068  -14.6928 C   0  0  0  0  0
   -4.5722   17.7621  -13.5385 C   0  0  0  0  0
   -4.1056   19.1079  -13.0584 C   0  0  0  0  0
   -5.2955   20.0389  -12.9250 C   0  0  0  0  0
   -3.1350   19.6956  -14.0649 C   0  0  0  0  0
   -6.1170   15.2713  -15.6215 C   0  0  0  0  0
   -7.5756   15.1202  -15.2350 C   0  0  0  0  0
   -3.9542   14.1808  -11.2475 O   0  0  0  0  0
   -3.4463   19.0131  -11.7800 O   0  0  0  0  0
   -4.9161   15.5683  -13.5077 N   0  0  0  0  0
   -5.4217   16.0688  -14.6265 N   0  0  0  0  0
  1  2  1  0  0  0
  2  3  1  0  0  0
  3  4  1  0  0  0
  4  5  1  0  0  0
  5  6  1  0  0  0
  6  7  1  0  0  0
  7  8  1  0  0  0
  7  9  1  0  0  0
  7 10  1  0  0  0
 11 12  1  0  0  0
 12 25  1  0  0  0
 13 14  1  0  0  0
 13 16  1  0  0  0
 14 24  1  0  0  0
 15 10  1  0  0  0
 18 16  1  0  0  0
 19 18  1  0  0  0
 19 25  1  0  0  0
 19 20  1  0  0  0
 19 21  1  0  0  0
 22 27  1  0  0  0
 22 23  1  0  0  0
 27 26  1  0  0  0
 27 17  1  0  0  0
 10 11  2  0  0  0
 12 13  2  0  0  0
 14 15  2  0  0  0
 16 26  2  0  0  0
 17 18  2  0  0  0
M  END
> <rmsd>
0.631020546

$$$$
CHEMBL5183623_7FEE


 22 23  0  0  0  0  0  0  0  0999 V2000
   -0.5882   15.5917   -7.2066 C   0  0  0  0  0
   -3.2107   16.6333   -6.0662 C   0  0  0  0  0
   -2.7560   16.6665   -9.0533 C   0  0  0  0  0
   -2.7976   15.4135   -9.6674 C   0  0  0  0  0
   -3.4418   15.2512  -10.8965 C   0  0  0  0  0
   -4.0617   16.3481  -11.5214 C   0  0  0  0  0
   -4.0285   17.6098  -10.8875 C   0  0  0  0  0
   -3.3814   17.7583   -9.6584 C   0  0  0  0  0
   -4.7455   16.1406  -12.8461 C   0  0  0  0  0
   -4.1422   16.9931  -13.9497 C   0  0  0  0  0
   -5.3055   17.6347  -14.6852 C   0  0  0  0  0
   -6.5642   16.9645  -14.1731 C   0  0  0  0  0
   -6.2234   16.4664  -12.7885 C   0  0  0  0  0
   -1.2055   18.5797   -7.2709 C   0  0  0  0  0
   -0.1734   18.7898   -8.3637 C   0  0  0  0  0
    0.3508   20.2131   -8.3275 C   0  0  0  0  0
   -0.6777   21.1686   -8.9109 C   0  0  0  0  0
   -0.1688   22.5975   -8.8499 C   0  0  0  0  0
   -0.2603   23.1317   -7.4329 C   0  0  0  0  0
   -1.9395   16.8664   -7.4130 Si  0  0  0  0  0
   -4.6347   18.7182  -11.4673 O   0  0  0  0  0
   -3.4621   13.9940  -11.4898 O   0  0  0  0  0
  1 20  1  0  0  0
  4  5  1  0  0  0
  5 22  1  0  0  0
  6  7  1  0  0  0
  7 21  1  0  0  0
  8  3  1  0  0  0
  9  6  1  0  0  0
  9 10  1  0  0  0
 10 11  1  0  0  0
 11 12  1  0  0  0
 12 13  1  0  0  0
 13  9  1  0  0  0
 14 15  1  0  0  0
 15 16  1  0  0  0
 16 17  1  0  0  0
 17 18  1  0  0  0
 18 19  1  0  0  0
 20  2  1  0  0  0
 20  3  1  0  0  0
 20 14  1  0  0  0
  3  4  2  0  0  0
  5  6  2  0  0  0
  7  8  2  0  0  0
M  END
> <rmsd>
0.578815877

$$$$
